2
Lattice="2.7688278275569727 -2.882431100833671e-17 2.768827827556972 2.7688278275569727 2.768827827556972 8.841043772251876e-17 4.8901592747343855e-17 2.768827827556972 2.768827827556972" Properties=species:S:1:pos:R:3 n_minim_iter=2 pbc="T T T"
Si      -0.00000000      -0.00000000      -0.00000000
Si       1.38441391       1.38441391       1.38441391
