2
Lattice="2.6860994081701057 8.760915367020768e-18 1.785267652727868e-50 -1.3430497040850529 2.3262303245656564 -4.439525140764724e-51 1.761465470026979e-49 -2.739101306669658e-49 4.6366857242114845" Properties=species:S:1:pos:R:3 n_minim_iter=3 pbc="T T T"
Si      -0.00000000       0.00000000      -0.00000000
Si      -0.00000000       1.55082022       2.31834286
