30
Lattice="3.0947645 0.0 0.0 -1.5473822499999994 2.6801446757302467 0.0 0.0 0.0 37.96371221" Properties=species:S:1:pos:R:3 spacegroup="R 3 m" unit_cell=conventional pbc="T T T"
Si       0.00000000       0.00000000       3.16397170 
Si       1.54738225       0.89338156      15.81854244 
Si       0.00000000       1.78676312      28.47311318 
Si       0.00000000       0.00000000      13.28695760 
Si       1.54738225       0.89338156      25.94152834 
Si       0.00000000       1.78676312       0.63238686 
Si       0.00000000       0.00000000      20.87833335 
Si       1.54738225       0.89338156      33.53290409 
Si       0.00000000       1.78676312       8.22376261 
Si       0.00000000       0.00000000      31.00097757 
Si       1.54738225       0.89338156       5.69183610 
Si       0.00000000       1.78676312      18.34640684 
Si       0.00000000       0.00000000      36.06393212 
Si       1.54738225       0.89338156      10.75479065 
Si       0.00000000       1.78676312      23.40936139 
C       0.00000000       0.00000000       5.06265084 
C       1.54738225       0.89338156      17.71722158 
C       0.00000000       1.78676312      30.37179232 
C       0.00000000       0.00000000      15.19110351 
C       1.54738225       0.89338156      27.84567425 
C       0.00000000       1.78676312       2.53653278 
C       0.00000000       0.00000000      22.78217555 
C       1.54738225       0.89338156      35.43674629 
C       0.00000000       1.78676312      10.12760482 
C       0.00000000       0.00000000      32.89931504 
C       1.54738225       0.89338156       7.59017356 
C       0.00000000       1.78676312      20.24474430 
C       0.00000000       0.00000000      37.96188995 
C       1.54738225       0.89338156      12.65274848 
C       0.00000000       1.78676312      25.30731922 
