1
Lattice="2.6591479004670555 2.7772052186333527e-16 -1.1598655682665541e-50 1.3295739502335275 2.3028896342245244 -4.236739485307639e-49 -2.0040280565953464e-50 -4.491027309328999e-49 2.4828799034906" Properties=species:S:1:pos:R:3 cutoff=-1.0 nneightol=1.2 n_minim_iter=3 pbc="T T T"
Si       0.00000000       0.00000000       0.00000000
