2
Lattice="2.814768375062038 4.101231715521773e-17 2.814768375062038 2.814768375062038 2.814768375062038 -8.952033140183049e-17 -7.643488330529846e-17 2.814768375062038 2.814768375062038" Properties=species:S:1:pos:R:3 n_minim_iter=1 energy=-326.26838232019776 free_energy=-326.26838232019776 pbc="T T T"
Si       0.00000000      -0.00000000      -0.00000000
Si       1.40738419       1.40738419       1.40738419
