2
Lattice="2.83593284174431 4.1320692021044923e-17 2.83593284174431 2.83593284174431 2.83593284174431 -9.01934418744811e-17 -7.700960325576071e-17 2.83593284174431 2.83593284174431" Properties=species:S:1:pos:R:3 n_minim_iter=1 energy=-326.2240553008272 free_energy=-326.2240553008272 pbc="T T T"
Si       0.00000000      -0.00000000      -0.00000000
Si       1.41796642       1.41796642       1.41796642
