2
Lattice="2.8289999999999993 0.0 2.8289999999999993 2.8289999999999993 2.8289999999999993 0.0 0.0 2.8289999999999993 2.8289999999999993" Properties=species:S:1:pos:R:3 n_minim_iter=1 energy=-326.23946810391544 free_energy=-326.23946810391544 pbc="T T T"
Si       0.00000000       0.00000000       0.00000000
Si       1.41450000       1.41450000       1.41450000
2
Lattice="2.7478145192271937 1.3413663563496438e-16 2.7478145192271937 2.7478145192271937 2.7478145192271937 1.456276164022006e-16 4.980928576496429e-17 2.7478145192271937 2.7478145192271937" Properties=species:S:1:pos:R:3 n_minim_iter=2 stress="0.010268707233238718 1.92007484761301e-16 9.050277073140132e-17 1.92007484761301e-16 0.010268707233238718 -1.0862228993341125e-16 9.050277073140132e-17 -1.0862228993341125e-16 0.010268707233238677" pbc="T T T"
Si      -0.00000000      -0.00000000      -0.00000000
Si       1.37390726       1.37390726       1.37390726
2
Lattice="2.7267486149509335 3.972983354143786e-17 2.7267486149509326 2.7267486149509335 2.726748614950933 -8.67209685253444e-17 -7.404471147010996e-17 2.726748614950933 2.7267486149509326" Properties=species:S:1:pos:R:3 n_minim_iter=3 stress="-0.0020212554531233063 1.3953971923283557e-17 7.461443262848935e-17 1.3953971923283557e-17 -0.002021255453123482 5.834447282914467e-17 7.461443262848935e-17 5.834447282914467e-17 -0.002021255453123482" pbc="T T T"
Si      -0.00000000      -0.00000000      -0.00000000
Si       1.36337431       1.36337431       1.36337431
