1
Lattice="2.68428320767364 1.8791481858606054e-17 1.0076722835104699e-51 1.34214160383682 2.324657448797352 -2.254857766178412e-50 3.2922604942253343e-52 1.4871717189740726e-51 2.506449316364195" Properties=species:S:1:pos:R:3 cutoff=-1.0 nneightol=1.2 n_minim_iter=3 pbc="T T T"
Si       0.00000000       0.00000000       0.00000000
