24
Lattice="9.596471026026537 0.012851550827109993 -0.011619487542922568 0.008567700551408606 6.494814637119876 0.008293979855254801 -0.007746325028615763 0.008293979855259552 6.600142619120363" Properties=species:S:1:pos:R:3 Minim_Constant_Volume=F n_minim_iter=24 pbc="T T T"
Ti       0.15535972       0.04481762       0.01156836
Ti       1.57135993       1.70456075       1.65743324
V        0.03461835      -0.01542580       3.31588021
Ti       1.60238466       1.71050394       4.95198182
Ti      -0.05533362       3.22363333       0.01791500
Ti       1.62153571       4.76640864       1.65856665
Ti      -0.08077428       3.24984538       3.27432555
Al       1.60163751       4.83455072       4.91333909
Ti       3.02931463       0.04329693       0.04737833
Ti       4.92316193       1.53699258       1.65019477
Ti       3.11460759       0.07240262       3.23411669
Ti       4.73703104       1.55981076       4.94694664
Ti       3.29290529       3.22561124       0.01819151
Ti       4.73023499       4.96195198       1.64578210
Ti       3.29013241       3.20824885       3.27416682
Ti       4.73762028       4.95950856       4.94975660
Ti       6.44275804      -0.02147082      -0.03560375
Ti       7.90394422       1.57271718       1.63998906
Ti       6.42318135      -0.02883916       3.32893226
Ti       8.04757293       1.63049472       4.96124841
Al       6.37349175       3.28921882      -0.01644656
Ti       8.06791364       4.93758167       1.60702074
Al       6.36649643       3.30317253       3.31352322
Ti       8.04094813       4.88689998       4.99352771
