10
Lattice="6.637495156485532 -2.2477237774727388 -5.427396569453402e-15 -4.536791096726785 5.340985927415068 -4.411996273617651e-15 -1.0503520298793605 -1.5466310749711465 8.377654902641448" Properties=species:S:1:pos:R:3 unique_starting_index=26 config_type=initial n_minim_iter=1 energy=-1627.7459198065796 free_energy=-1627.7459198065796 pbc="T T T"
Si       0.98704831       3.61146075       1.99846092
Si       1.11365554      -0.51819891       1.99846092
Si       1.94267582       0.70252375       6.37919399
Si      -1.94267603      -0.70252406       6.37919399
Si       3.13806901       0.34889565       1.17427302
Si      -1.03736515       2.74436619       1.17427302
Si      -1.88314444       1.49896608       7.20338188
Si       1.88314424      -1.49896639       7.20338188
Si       5.54563157      -2.63618924       4.18882745
Si       1.09186338       0.38846515       4.18882745
