12
Lattice="3.9633499999999997 1.4617971567111187e-15 -6.771929710848679e-16 1.6499912776826464 5.559539674466867 2.1796805318742774e-15 1.297000003882187 1.0425931354331939 11.26511244122655" Properties=species:S:1:pos:R:3 unique_starting_index=192 config_type=initial n_minim_iter=1 pbc="T T T"
Si       5.07116003       1.18125502      10.33242872
Si       3.35599856       5.74055398       2.56983125
Si       4.63896083       1.42304682       4.24781818
Si       5.65978520       3.73090191       8.43391144
Si       5.10044944       3.70947449       9.99703140
Si       2.82325927       2.63478906       8.73385294
Si       5.35810409       6.08128287       9.81549074
Si       2.35504458       5.09134081       1.50251929
Si       4.06546216       3.62060343       8.52144587
Si       3.81355399       4.44676396       1.74700603
Si       3.61818285       5.01819064       9.16073874
Si       2.71737938       3.40985828       1.21453909
12
Lattice="4.05169940510755 0.003624350478855078 0.013029018839868114 1.6918562323541442 5.660639529029035 0.02918512942982507 1.3638982752756084 1.1106018345733861 11.358225086274459" Properties=species:S:1:pos:R:3 unique_starting_index=192 config_type=initial n_minim_iter=2 pbc="T T T"
Si       5.22106249       1.25180068      10.43285738
Si       3.44531384       5.86002422       2.62720671
Si       4.75760586       1.47091302       4.30087263
Si       5.81762091       3.84033530       8.53052307
Si       5.25078154       3.82319056      10.10552019
Si       2.91718662       2.71863700       8.81999383
Si       5.51363278       6.23675487       9.93246864
Si       2.41376492       5.19138194       1.54174271
Si       4.18730523       3.72467317       8.61228778
Si       3.91241101       4.53621043       1.79150473
Si       3.73275896       5.15319730       9.26317642
Si       2.78365863       3.47696470       1.24655673
12
Lattice="4.450736563840769 0.023374468711788426 0.08423281078194003 1.8856845334813401 6.164821753072472 0.17877190189669148 1.7020620146851755 1.4531116349728688 11.705146541742895" Properties=species:S:1:pos:R:3 unique_starting_index=192 config_type=initial n_minim_iter=3 pbc="T T T"
Si       5.93271671       1.60833693      10.83168742
Si       3.86252073       6.45773229       2.89236573
Si       5.30794317       1.71244025       4.52785154
Si       6.55885671       4.39040894       8.93771115
Si       5.96579180       4.39480638      10.54451202
Si       3.37077585       3.14006252       9.16149373
Si       6.25058112       7.01575165      10.42093530
Si       2.68651062       5.69377896       1.72755739
Si       4.76690202       4.24674334       8.98255303
Si       4.36891666       4.98463099       2.00209145
Si       4.28292679       5.82996502       9.68422226
Si       3.08953136       3.80858033       1.39771521
12
Lattice="4.779687888369235 0.055981006024701775 0.1502742516374889 2.0683694222981917 6.6435423425239675 0.34682205059450866 2.0059992087713723 1.8358165580565577 12.182826876779268" Properties=species:S:1:pos:R:3 unique_starting_index=192 config_type=initial n_minim_iter=4 pbc="T T T"
Si       6.54681164       2.01416118      11.34532303
Si       4.23482975       7.04401207       3.20238781
Si       5.77578680       1.97605417       4.80194519
Si       7.20233153       4.96333140       9.44333357
Si       6.58813797       5.00037426      11.11086459
Si       3.76992867       3.59806404       9.60575709
Si       6.89924704       7.81369495      11.03567400
Si       2.93290983       6.18518516       1.95004372
Si       5.27584374       4.79076101       9.45947434
Si       4.77076968       5.42879038       2.24547372
Si       4.77343226       6.52209173      10.22390195
Si       3.35594851       4.13080647       1.57074534
12
Lattice="5.100291229295237 0.06686812955078456 0.1835330181011719 2.217112306804449 6.963047972828453 0.47120916790879264 2.2083121810166793 2.12243275565411 12.63200449291278" Properties=species:S:1:pos:R:3 unique_starting_index=192 config_type=initial n_minim_iter=5 pbc="T T T"
Si       7.05816561       2.30547517      11.80003847
Si       4.54729215       7.44527514       3.45069186
Si       6.19144773       2.15168530       5.02440944
Si       7.74544207       5.36411695       9.86057978
Si       7.09191479       5.42659142      11.61749027
Si       4.08064102       3.91150432      10.00412262
Si       7.42139113       8.36370907      11.56255928
Si       3.13643176       6.51179447       2.12315534
Si       5.68629480       5.17136638       9.87401024
Si       5.12056048       5.72032455       2.42807431
Si       5.15260308       7.01018139      10.69820831
Si       3.58999426       4.34645857       1.70294408
12
Lattice="5.345094293756822 0.06940824995398702 0.2210225118682536 2.3225899510375134 7.144743449547981 0.5772957021503174 2.395648966893138 2.340474483346002 12.86991462982705" Properties=species:S:1:pos:R:3 unique_starting_index=192 config_type=initial n_minim_iter=6 pbc="T T T"
Si       7.48181616       2.51873293      12.06401801
Si       4.78530991       7.69374832       3.63520279
Si       6.52091260       2.26616992       5.16606209
Si       8.18139298       5.63329411      10.11733472
Si       7.50104219       5.71768742      11.92826321
Si       4.34178387       4.12226494      10.23424566
Si       7.83712218       8.71884190      11.89068750
Si       3.27812919       6.70616575       2.25010439
Si       6.02093740       5.42614436      10.12331629
Si       5.39663247       5.88771454       2.56700463
Si       5.46195325       7.33736404      10.98951558
Si       3.76665049       4.47033000       1.80302980
12
Lattice="5.360076659207769 0.054499182236045815 0.21746778675996692 2.3079137853761225 7.1126018109841285 0.5954977869671876 2.386526294998685 2.370612809960201 12.780515126236855" Properties=species:S:1:pos:R:3 unique_starting_index=192 config_type=initial n_minim_iter=7 pbc="T T T"
Si       7.49338904       2.53060707      11.98155420
Si       4.77119465       7.67288821       3.63665969
Si       6.53130899       2.25325028       5.12787744
Si       8.18335484       5.62935155      10.04892490
Si       7.49415687       5.72030620      11.86436337
Si       4.33686474       4.11716600      10.16990157
Si       7.81827188       8.70182154      11.82633865
Si       3.25724284       6.68043398       2.25099891
Si       6.01762130       5.42298105      10.06081874
Si       5.40270849       5.85272600       2.56233418
Si       5.44681449       7.34134709      10.93408626
Si       3.76260452       4.44788265       1.80207575
12
Lattice="5.361266669715498 0.03756645085205501 0.2102800321634137 2.284657024058484 7.032225862811395 0.6146277204872629 2.3620315192150563 2.396146144635824 12.592669796051485" Properties=species:S:1:pos:R:3 unique_starting_index=192 config_type=initial n_minim_iter=8 pbc="T T T"
Si       7.48087849       2.53397727      11.80655130
Si       4.73793913       7.60665317       3.61713490
Si       6.52244366       2.22520530       5.04646945
Si       8.15790835       5.59684518       9.89996057
Si       7.45654108       5.69557646      11.71580574
Si       4.31306136       4.08438372      10.02825646
Si       7.76432727       8.63293779      11.67429682
Si       3.21981322       6.61124618       2.23740075
Si       5.99219142       5.39080683       9.92126675
Si       5.39648060       5.77687612       2.53989201
Si       5.40741895       7.30919952      10.80084299
Si       3.74587948       4.39516141       1.78927625
12
Lattice="5.373644847422284 0.017039329879279082 0.19928957579947376 2.261016049074966 6.789629829640442 0.675400499498831 2.3294440198514303 2.4779496754602395 11.998114331938858" Properties=species:S:1:pos:R:3 unique_starting_index=192 config_type=initial n_minim_iter=9 pbc="T T T"
Si       7.49366869       2.57817110      11.26383934
Si       4.69684663       7.41609980       3.55620690
Si       6.52944695       2.17206338       4.80210470
Si       8.14891505       5.52934752       9.44486059
Si       7.41079175       5.65058984      11.25248763
Si       4.28705883       4.00011910       9.58153809
Si       7.68630322       8.45122997      11.20173203
Si       3.15470302       6.40752419       2.19698515
Si       5.97423417       5.31553257       9.48633608
Si       5.42532092       5.57314973       2.47927883
Si       5.36025041       7.22502916      10.38167268
Si       3.72884057       4.24473848       1.75274758
12
Lattice="5.537714850013944 0.0006860056362892653 0.19270111878944715 2.3063809848659713 6.604776913174919 0.7649883196305712 2.3601072772899405 2.6262955364930503 11.109393785065874" Properties=species:S:1:pos:R:3 unique_starting_index=192 config_type=initial n_minim_iter=10 pbc="T T T"
Si       7.74747202       2.68954645      10.46667311
Si       4.78076395       7.32922239       3.46561506
Si       6.73592948       2.14416830       4.44173008
Si       8.40219507       5.55646595       8.76433434
Si       7.56309955       5.72328268      10.59475430
Si       4.36726413       3.93553898       8.90330689
Si       7.80598364       8.37819082      10.50546746
Si       3.13605418       6.27353568       2.13206119
Si       6.12810831       5.31676583       8.83170502
Si       5.65191225       5.42550262       2.39899536
Si       5.45836102       7.27609551       9.76536431
Si       3.81321925       4.10564039       1.69423180
12
Lattice="5.267066051658067 -0.06649735604893459 0.10797801284723112 2.0994659454787 6.2505310005550765 0.678508078371069 2.0130544762414244 2.4393594281814877 10.561012223870772" Properties=species:S:1:pos:R:3 unique_starting_index=192 config_type=initial n_minim_iter=11 pbc="T T T"
Si       7.15666346       2.43427071       9.87335831
Si       4.38494032       6.91092271       3.21762460
Si       6.31244034       1.93767168       4.12970480
Si       7.78679770       5.16299373       8.20903446
Si       6.92385657       5.34209287      10.02539754
Si       3.94380926       3.64038815       8.42088101
Si       7.13414672       7.84268777       9.89974947
Si       2.85630404       5.92595436       1.97122827
Si       5.60509797       4.95915310       8.32140829
Si       5.27615562       5.08359211       2.19163030
Si       4.93024789       6.83997007       9.23252649
Si       3.55087543       3.84342890       1.54839512
12
Lattice="5.4967863790447815 -0.08020126359803285 0.12696588472358003 2.175878353865555 6.436263783200945 0.7734985127904096 2.138594783627795 2.6472342160678384 10.78450634819426" Properties=species:S:1:pos:R:3 unique_starting_index=192 config_type=initial n_minim_iter=12 pbc="T T T"
Si       7.50319242       2.62060832      10.10143712
Si       4.57283701       7.15056342       3.37652551
Si       6.60003321       2.03304309       4.24641743
Si       8.15183305       5.40665901       8.43669480
Si       7.25397607       5.61957503      10.30314056
Si       4.13690506       3.83936474       8.62497571
Si       7.46422862       8.18654374      10.19662040
Si       2.96167840       6.11951259       2.08779290
Si       5.86899416       5.19866020       8.54304169
Si       5.50989370       5.24743577       2.30999347
Si       5.16146358       7.15585873       9.49797611
Si       3.69797278       3.95914931       1.63161685
12
Lattice="5.496829288409243 -0.08623082726932381 0.12458354735669662 2.167438322484732 6.396631236369818 0.7856038460445878 2.1302513300952133 2.6648376921705954 10.731115222833695" Properties=species:S:1:pos:R:3 unique_starting_index=192 config_type=initial n_minim_iter=13 pbc="T T T"
Si       7.49564858       2.62946821      10.04943216
Si       4.56169734       7.11500846       3.37576442
Si       6.59718642       2.02508564       4.22457635
Si       8.14472805       5.39264849       8.39754855
Si       7.24082233       5.61517924      10.26683449
Si       4.12587274       3.83328268       8.58480759
Si       7.44925884       8.16130011      10.16154022
Si       2.94917665       6.08535667       2.09167264
Si       5.85844759       5.18863866       8.50617901
Si       5.50508979       5.21659670       2.30910761
Si       5.14801570       7.13981725       9.46466531
Si       3.69162553       3.93264073       1.63061310
12
Lattice="5.501930202780792 -0.09104480609635392 0.12368577836335364 2.162809147150817 6.379033411460166 0.7952177183785608 2.1281024903571706 2.680575597268948 10.708893853351867" Properties=species:S:1:pos:R:3 unique_starting_index=192 config_type=initial n_minim_iter=14 pbc="T T T"
Si       7.49861243       2.63864169      10.02785239
Si       4.55795995       7.10069017       3.38021414
Si       6.60149717       2.02226923       4.21618027
Si       8.14749321       5.39020166       8.38329261
Si       7.23974215       5.61927733      10.25516334
Si       4.12342344       3.83524435       8.56916963
Si       7.44660557       8.15566164      10.15151240
Si       2.94330677       6.07100774       2.09756806
Si       5.85748932       5.18886085       8.49295816
Si       5.50614526       5.20272591       2.31223042
Si       5.14413072       7.13878422       9.45461926
Si       3.69042597       3.92041423       1.63261877
12
Lattice="5.540883636525302 -0.12759560221895339 0.11775845364195726 2.1277547675823425 6.258267882303277 0.8644810178516015 2.114387581283689 2.7941665655513845 10.565848979347562" Properties=species:S:1:pos:R:3 unique_starting_index=192 config_type=initial n_minim_iter=15 pbc="T T T"
Si       7.52311735       2.70323020       9.88858459
Si       4.53059249       7.00232915       3.41645218
Si       6.63478732       2.00162622       4.16302593
Si       8.16886064       5.37340727       8.29493899
Si       7.23442046       5.65005828      10.18495260
Si       4.10795108       3.85224079       8.46981599
Si       7.42928010       8.11988402      10.09416168
Si       2.90102137       5.97305254       2.14264761
Si       5.85270347       5.19248838       8.41134704
Si       5.51347577       5.10588090       2.33783542
Si       5.11684458       7.13498213       9.39595817
Si       3.68210792       3.83576286       1.64913972
12
Lattice="5.603124799822226 -0.18385122181145888 0.11683042236972312 2.0747546609847687 6.129044174365936 0.9593224164980353 2.1173196184720235 2.9488722327679167 10.477479782529521" Properties=species:S:1:pos:R:3 unique_starting_index=192 config_type=initial n_minim_iter=16 pbc="T T T"
Si       7.58121056       2.78572341       9.80325093
Si       4.49735159       6.89768648       3.49304647
Si       6.69393143       1.97602274       4.13997906
Si       8.21212425       5.36065037       8.26712844
Si       7.25251776       5.69964642      10.17982774
Si       4.10772817       3.89165338       8.42000643
Si       7.42815512       8.10145104      10.11272532
Si       2.85030651       5.87140344       2.22130352
Si       5.86758843       5.21164426       8.38744260
Si       5.52399247       4.99540666       2.39496625
Si       5.09625257       7.15139823       9.40329369
Si       3.67483866       3.74216812       1.68672907
12
Lattice="5.647797536282604 -0.23670315132513514 0.12820129822318152 2.01921508625794 5.963336508812035 1.05759633832173 2.15035522610234 3.0941644438154476 10.375761450210852" Properties=species:S:1:pos:R:3 unique_starting_index=192 config_type=initial n_minim_iter=17 pbc="T T T"
Si       7.64643487       2.86120360       9.71657992
Si       4.46239077       6.75325419       3.57374583
Si       6.74674618       1.94415515       4.12500992
Si       8.25492619       5.32190811       8.24597487
Si       7.28319548       5.72336274      10.17023746
Si       4.12229586       3.91596128       8.36297593
Si       7.44198207       8.04606323      10.13238012
Si       2.80187805       5.73665904       2.30429026
Si       5.89722556       5.20856971       8.36443022
Si       5.52446603       4.85780898       2.46165742
Si       5.09378080       7.13134968       9.40575091
Si       3.66245928       3.62883845       1.72876219
12
Lattice="5.729189772376948 -0.2656538735714464 0.138914276565344 2.0124894099219923 5.9386957048359506 1.1349939933318605 2.199824693057158 3.230120944953455 10.396359801695402" Properties=species:S:1:pos:R:3 unique_starting_index=192 config_type=initial n_minim_iter=18 pbc="T T T"
Si       7.76572330       2.95713535       9.74411478
Si       4.49394274       6.75455006       3.66172611
Si       6.84793501       1.95903659       4.15361994
Si       8.36917250       5.37755757       8.30725634
Si       7.38437701       5.82050312      10.24982261
Si       4.17884575       3.99041183       8.39684190
Si       7.53806315       8.12878715      10.23610403
Si       2.80820877       5.73059245       2.38233137
Si       5.98418341       5.28244929       8.42348021
Si       5.58493415       4.84111754       2.53144198
Si       5.15412633       7.21855809       9.48985687
Si       3.69538532       3.60994297       1.77426960
12
Lattice="5.724801298522521 -0.2780682544560833 0.14356642446978357 1.9932483167446988 5.877397901504504 1.1627706415940928 2.2083457599171434 3.267890800969978 10.335956974256066" Properties=species:S:1:pos:R:3 unique_starting_index=192 config_type=initial n_minim_iter=19 pbc="T T T"
Si       7.76456592       2.97738289       9.69130847
Si       4.47364559       6.69848976       3.67720416
Si       6.84559026       1.94830630       4.13888502
Si       8.36042552       5.35794898       8.27966405
Si       7.37729961       5.81759376      10.21857371
Si       4.17473600       3.99119030       8.35518735
Si       7.52833710       8.10107768      10.21666934
Si       2.79044021       5.67961467       2.40246445
Si       5.98219464       5.27374233       8.39480684
Si       5.57066728       4.79235835       2.54694385
Si       5.14548001       7.19963154       9.46538527
Si       3.68289883       3.57036046       1.78289331
12
Lattice="5.755516625884308 -0.2899910201721598 0.1481623525808521 1.9893109741456911 5.861807664432774 1.1968287454592823 2.2283240189554623 3.3271301315957627 10.335383206545378" Properties=species:S:1:pos:R:3 unique_starting_index=192 config_type=initial n_minim_iter=20 pbc="T T T"
Si       7.80900438       3.01973015       9.69398101
Si       4.48379287       6.69415203       3.71333719
Si       6.88455707       1.95416326       4.14756436
Si       8.40324656       5.37984288       8.29903293
Si       7.41560980       5.85745591      10.24480723
Si       4.19571020       4.02182907       8.36157513
Si       7.56580726       8.13485246      10.25508383
Si       2.79227868       5.67282089       2.43598602
Si       6.01667625       5.30408253       8.41372614
Si       5.59274652       4.78191385       2.57644769
Si       5.16872361       7.23415167       9.49481862
Si       3.69440066       3.55950000       1.80154753
12
Lattice="5.786822016588517 -0.30869631605706477 0.15564097025526047 1.9761051727432486 5.8133733453391905 1.2489852910382377 2.2549047014049615 3.412760646187854 10.30212740485601" Properties=species:S:1:pos:R:3 unique_starting_index=192 config_type=initial n_minim_iter=21 pbc="T T T"
Si       7.85621554       3.07854747       9.66807658
Si       4.48507638       6.66121563       3.76090058
Si       6.92645781       1.95587390       4.14889561
Si       8.44591289       5.39530873       8.30478884
Si       7.45461867       5.90096107      10.25646961
Si       4.21664900       4.05657713       8.34520567
Si       7.60385455       8.16091451      10.28751429
Si       2.78668877       5.63965423       2.48369472
Si       6.05483807       5.33435915       8.41894133
Si       5.61028692       4.74627346       2.61727685
Si       5.19120387       7.26381829       9.51401854
Si       3.70086415       3.52763572       1.82632819
12
Lattice="5.92344172336358 -0.3645531960241078 0.17844108785592672 1.9546290942414029 5.729785017386681 1.411355251212773 2.3497249037696206 3.692938565939327 10.262100714535073" Properties=species:S:1:pos:R:3 unique_starting_index=192 config_type=initial n_minim_iter=22 pbc="T T T"
Si       8.05060945       3.27933789       9.64567368
Si       4.52422940       6.63054476       3.92335190
Si       7.10339106       1.97910931       4.17613437
Si       8.63545095       5.49275147       8.36752548
Si       7.62774986       6.08153913      10.34821900
Si       4.30956983       4.19524444       8.34087141
Si       7.77901075       8.32191827      10.44660076
Si       2.79579955       5.59913957       2.64072689
Si       6.21630684       5.47345779       8.48258705
Si       5.70664006       4.69029261       2.75496955
Si       5.29975264       7.42083231       9.62657798
Si       3.74791856       3.46966617       1.91000325
12
Lattice="5.844799372754529 -0.37765594965125876 0.18710087835680903 1.9035095940215572 5.564829886944941 1.4212044562793766 2.3451564310578186 3.6713913258813022 10.00185721864408" Properties=species:S:1:pos:R:3 unique_starting_index=192 config_type=initial n_minim_iter=23 pbc="T T T"
Si       7.95175951       3.24193881       9.40947491
Si       4.43756175       6.45469163       3.87174351
Si       7.02071377       1.92169238       4.08527820
Si       8.52046490       5.37301043       8.18071985
Si       7.53487946       5.96147216      10.12856987
Si       4.25622352       4.11426737       8.13120879
Si       7.68984326       8.16358324      10.25280366
Si       2.74593730       5.44519752       2.62242676
Si       6.15218977       5.36974758       8.29876164
Si       5.61789570       4.55437936       2.73336891
Si       5.23997578       7.27477369       9.43105584
Si       3.67938926       3.36190919       1.88649349
12
Lattice="5.978405285090235 -0.39096013867150403 0.19017569064701634 1.9404690912413576 5.671596258586407 1.4637468968651701 2.3941185764292783 3.771706936666686 10.156394842872844" Properties=species:S:1:pos:R:3 unique_starting_index=192 config_type=initial n_minim_iter=24 pbc="T T T"
Si       8.12589691       3.32581565       9.55503429
Si       4.53140629       6.58354915       3.95249682
Si       7.17874841       1.96272951       4.15185575
Si       8.70891540       5.49202757       8.31568978
Si       7.70015377       6.09708118      10.29762304
Si       4.34604630       4.21202097       8.25939677
Si       7.85829872       8.34621324      10.43330298
Si       2.80218289       5.55348281       2.68318201
Si       6.28718069       5.49147822       8.43648262
Si       5.74199586       4.64296900       2.79316774
Si       5.35067767       7.43769126       9.59380649
Si       3.75735784       3.42565622       1.92678893
12
Lattice="5.979747438583005 -0.39285909478871417 0.19041896326513633 1.93836410926467 5.654431778968716 1.4644442186864508 2.394749716215075 3.7692226128772215 10.138434836735088" Properties=species:S:1:pos:R:3 unique_starting_index=192 config_type=initial n_minim_iter=25 pbc="T T T"
Si       8.12605457       3.32138902       9.53832905
Si       4.52904638       6.56499942       3.94861315
Si       7.18070253       1.95589525       4.14492398
Si       8.70914557       5.47898423       8.30139010
Si       7.70031944       6.08375283      10.28275516
Si       4.34524511       4.20326465       8.24398761
Si       7.85935807       8.32940329      10.42064042
Si       2.80151744       5.53710594       2.68212260
Si       6.28831013       5.48015834       8.42340538
Si       5.74155646       4.62853041       2.79201238
Si       5.35125023       7.42227483       9.58084989
Si       3.75540489       3.41412116       1.92481642
12
Lattice="5.991106208726246 -0.3961574966149467 0.19082225525353494 1.938466112833938 5.642554225669434 1.4679802610572064 2.3987454681456066 3.772998069730411 10.128569244327881" Properties=species:S:1:pos:R:3 unique_starting_index=192 config_type=initial n_minim_iter=26 pbc="T T T"
Si       8.13879247       3.32167626       9.52922800
Si       4.53295719       6.55294164       3.94950385
Si       7.19441376       1.95062645       4.14145386
Si       8.72288796       5.47212184       8.29409675
Si       7.71225437       6.07752091      10.27723490
Si       4.35058771       4.19980777       8.23510203
Si       7.87249024       8.32281295      10.41844317
Si       2.80468591       5.52608838       2.68490622
Si       6.29917792       5.47544315       8.41777551
Si       5.74994579       4.61824190       2.79465993
Si       5.35966254       7.41589144       9.57714197
Si       3.75868117       3.40540980       1.92519371
12
Lattice="6.114202996013629 -0.4304355246209023 0.1953605040442977 1.9416297417522375 5.5365676560429735 1.5009603677367622 2.442910727284624 3.8075791116419264 10.040043950732537" Properties=species:S:1:pos:R:3 unique_starting_index=192 config_type=initial n_minim_iter=27 pbc="T T T"
Si       8.28023366       3.32100558       9.44862250
Si       4.57865005       6.44429052       3.95865252
Si       7.34303693       1.89781795       4.11064333
Si       8.87375171       5.40728318       8.22794853
Si       7.84404125       6.01738239      10.22964563
Si       4.41071502       4.16674427       8.15395124
Si       8.01570248       8.26472226      10.40328172
Si       2.84011273       5.42659435       2.71152498
Si       6.41730064       5.43119697       8.36782267
Si       5.84207658       4.52371871       2.82126827
Si       5.45214581       7.35899550       9.54674488
Si       3.79625940       3.32494270       1.92905325
12
Lattice="6.27979571172951 -0.4785472258499053 0.2128521737239462 1.9430799353486283 5.397965223438644 1.4590915362357395 2.5341614240984445 3.6700056726633057 9.87231692928167" Properties=species:S:1:pos:R:3 unique_starting_index=192 config_type=initial n_minim_iter=28 pbc="T T T"
Si       8.51936925       3.15059314       9.31196645
Si       4.64995570       6.26000104       3.87451302
Si       7.55467318       1.75730960       4.04790927
Si       9.09749879       5.19741741       8.06387892
Si       8.05177002       5.75458281      10.07864271
Si       4.51406715       3.99152200       7.99185407
Si       8.22736005       8.02881901      10.26615141
Si       2.88902634       5.26353760       2.65892933
Si       6.58991752       5.23318548       8.22170143
Si       5.96336812       4.36840206       2.79556789
Si       5.60310512       7.13271222       9.40452318
Si       3.84069058       3.19961889       1.88842040
12
Lattice="6.362981127347065 -0.5533800817411039 0.18936680305156273 1.8727401921815032 5.209976403634293 1.4379332646392355 2.47494533699374 3.593044124287729 10.017961518545016" Properties=species:S:1:pos:R:3 unique_starting_index=192 config_type=initial n_minim_iter=29 pbc="T T T"
Si       8.54917736       3.00503652       9.42705696
Si       4.59696197       6.02801662       3.87366303
Si       7.60937981       1.61463309       4.06904522
Si       9.10205477       4.96898395       8.10477033
Si       8.02156110       5.52372092      10.19871586
Si       4.47565224       3.85814782       8.07904925
Si       8.16259058       7.75769531      10.37676974
Si       2.83189362       5.06615193       2.65788481
Si       6.55402658       5.03259511       8.29286167
Si       5.94599419       4.16489056       2.80201700
Si       5.53200474       6.90017185       9.51339797
Si       3.81689230       3.04416411       1.87928418
12
Lattice="6.378038245591365 -0.5406644682885199 0.20065177778413618 1.8968453232562152 5.26824000462036 1.4104398932659146 2.515293225264682 3.5419103947447494 9.848511704040028" Properties=species:S:1:pos:R:3 unique_starting_index=192 config_type=initial n_minim_iter=30 pbc="T T T"
Si       8.61067745       2.97362524       9.28485823
Si       4.63765376       6.08222079       3.80911860
Si       7.64669747       1.61615349       4.01275383
Si       9.15782760       4.98395064       7.97515966
Si       8.08391544       5.50430613      10.03294508
Si       4.51312832       3.84060960       7.94417525
Si       8.23334065       7.78726095      10.21663848
Si       2.85500243       5.10959587       2.61039976
Si       6.60655672       5.03340312       8.15770904
Si       5.97707110       4.20790877       2.76353032
Si       5.58762034       6.90463040       9.35655345
Si       3.83829677       3.07384417       1.85064429
12
Lattice="6.379696873282569 -0.5461519721829075 0.20435401670899658 1.8898383028337886 5.220001151855132 1.3977038515552538 2.5249154246676744 3.5025670134414995 9.839969172641164" Properties=species:S:1:pos:R:3 unique_starting_index=192 config_type=initial n_minim_iter=31 pbc="T T T"
Si       8.62260886       2.93114912       9.28112747
Si       4.63435268       6.02275063       3.79415215
Si       7.65252511       1.58649500       4.01025707
Si       9.16277923       4.92564260       7.96042293
Si       8.09120570       5.43684862      10.02303813
Si       4.51746434       3.79762916       7.93376307
Si       8.23689253       7.70811272      10.20328355
Si       2.85035093       5.05842385       2.59882776
Si       6.61109568       4.97568843       8.14442207
Si       5.97137236       4.16122580       2.75793286
Si       5.59055476       6.83147247       9.34267467
Si       3.83435471       3.03797102       1.84368740
12
Lattice="6.400633237116665 -0.5505326375579993 0.20431010407469563 1.8924094446101294 5.225781210252962 1.3984976853415307 2.5304896312258602 3.504204964656198 9.856154841554039" Properties=species:S:1:pos:R:3 unique_starting_index=192 config_type=initial n_minim_iter=32 pbc="T T T"
Si       8.64905653       2.92899704       9.29641147
Si       4.64573562       6.02799031       3.79833191
Si       7.67652566       1.58313378       4.01596913
Si       9.18911044       4.92683747       7.97042919
Si       8.11376256       5.43663730      10.03891945
Si       4.52868807       3.79935447       7.94561812
Si       8.25842745       7.71428180      10.21992296
Si       2.85561761       5.06266837       2.60194881
Si       6.62904197       4.97715420       8.15582077
Si       5.98685873       4.16288245       2.76217109
Si       5.60340318       6.83544592       9.35733939
Si       3.84415250       3.03851091       1.84556099
12
Lattice="6.402519553931322 -0.5524808739938266 0.2038796000148388 1.8904618771560548 5.217734612645753 1.394993730388292 2.5293707944693353 3.495473720539864 9.849382915018019" Properties=species:S:1:pos:R:3 unique_starting_index=192 config_type=initial n_minim_iter=33 pbc="T T T"
Si       8.65049998       2.91903077       9.29001391
Si       4.64437604       6.01733899       3.79266120
Si       7.67820676       1.57617994       4.01223032
Si       9.18919142       4.91495033       7.96175699
Si       8.11328279       5.42208027      10.03085133
Si       4.52750567       3.79042235       7.93891345
Si       8.25709883       7.69926619      10.21155819
Si       2.85373574       5.05350903       2.59798405
Si       6.62847584       4.96526616       8.14800210
Si       5.98549212       4.15398412       2.75896471
Si       5.60136889       6.82086882       9.34939643
Si       3.84332570       3.03152128       1.84259495
12
Lattice="6.408180761195245 -0.5550654680451496 0.20347582506458048 1.8891932002629976 5.210767436339837 1.3916662054482796 2.529395858017064 3.487121284172921 9.84579705282447" Properties=species:S:1:pos:R:3 unique_starting_index=192 config_type=initial n_minim_iter=34 pbc="T T T"
Si       8.65685667       2.90890559       9.28664856
Si       4.64532242       6.00773979       3.78784446
Si       7.68431334       1.56880844       4.00965851
Si       9.19425465       4.90352426       7.95512167
Si       8.11711761       5.40770544      10.02594286
Si       4.52850233       3.78195399       7.93457575
Si       8.25998578       7.68557389      10.20648768
Si       2.85301294       5.04517676       2.59466440
Si       6.63137630       4.95380935       8.14246329
Si       5.98706693       4.14552108       2.75662454
Si       5.60190448       6.80712503       9.34435576
Si       3.84440773       3.02471169       1.84002634
12
Lattice="6.581222649048727 -0.629749550689553 0.19137735327407313 1.856470499799822 5.002759885040508 1.2926801303781297 2.531989515463294 3.2391371980071146 9.743268444251175" Properties=species:S:1:pos:R:3 unique_starting_index=192 config_type=initial n_minim_iter=35 pbc="T T T"
Si       8.85376987       2.60972393       9.19015610
Si       4.68095268       5.72209925       3.64473845
Si       7.87373170       1.35163470       3.93455644
Si       9.35385216       4.56639582       7.75859432
Si       8.23995955       4.98211525       9.88463864
Si       4.56106051       3.53214192       7.80822696
Si       8.35515413       7.27843173      10.05931552
Si       2.83657207       4.79714934       2.49732347
Si       6.72533538       4.61432895       7.97982217
Si       6.03815012       3.89476177       2.68880138
Si       5.62364639       6.39794164       9.19855835
Si       3.88153865       2.82286096       1.76444208
