20
Lattice="9.907265586540143 -2.681039012781236e-13 -1.4435423753691577e-14 4.953632793270296 8.579943679982952 -1.2148482907549907e-13 4.9536327932701525 2.859981226660966 4.939351533324447" Properties=species:S:1:pos:R:3 unique_starting_index=8 config_type=initial n_minim_iter=16 energy=-3257.111045049354 free_energy=-3257.111045049354 pbc="T T T"
Si      11.83894244       4.58518418       1.89978284
Si       9.92417397       7.96023281       1.89978284
Si       7.95868035       4.61447036       1.89978284
Si       7.71163414       4.95547786       4.22439726
Si      11.66714439       4.20073214       4.22439726
Si      10.34301824       8.00367736       4.22439726
Si       9.51745343       3.53275592       4.88473667
Si      11.99634809       6.47597849       4.88473667
Si       8.20799525       7.15115296       4.88473667
Si       6.70342254       7.16085036      -0.54339105
Si      10.26134158       2.22490903      -0.54339105
Si      12.75703265       7.77412797      -0.54339105
Si      13.67999732       6.65076196       3.23993544
Si      17.12206929       8.52184422       3.23993544
Si      13.78062854      10.56722486       3.23993544
Si       9.86760971       3.37372846       1.48920128
Si      11.95899177       6.85873646       1.48920128
Si       7.89519529       6.92742245       1.48920128
Si      14.86089838       8.57994368       0.12976445
Si      14.86089838       8.57994368       2.57175238
