22
Lattice="5.8115351211961945 1.5135934327279144 0.5302766823759916 4.321448966928207 7.403276592097564 1.3253396256269476 2.6495131086379553 4.0279767217485585 12.144196367358019" Properties=species:S:1:pos:R:3 unique_starting_index=40 config_type=initial n_minim_iter=1 energy=-3581.9494681478377 free_energy=-3581.9494681478377 pbc="T T T"
Si       9.33244990       7.72684881      11.05449037
Si       2.70208531       4.48783923       4.63883094
Si       6.06721916       3.36344447       5.78029704
Si       6.34833896       9.00311011      10.76313087
Si       5.81133102       5.56132683      11.19254396
Si       8.42819393       8.34298659       5.58907094
Si       7.32146222       3.79719109       2.44457108
Si       7.94101004       8.79453806       7.81236018
Si       5.16985028       3.44413842       1.59830179
Si       8.11065527       9.46885981      12.39896839
Si       6.40081824       7.48085183       8.94068729
Si       5.23171469      10.93709731       9.71890894
Si       2.98002309       3.58607360       0.51962669
Si       2.86629659       3.59407759       6.86371640
Si       5.39321501       3.42697353      12.26224980
Si       9.98166323       8.43803011       8.85280889
Si       5.06799039       6.14449006       5.16301100
Si       6.12420957       8.27643340       5.06850873
Si       6.76515634       5.78087939       3.58193424
Si       4.89479647       4.86855714       7.30643017
Si       8.16030154       5.82372212      11.97211135
Si       4.52455597       3.20981678       3.87111053
22
Lattice="5.816117192321931 1.5204864994301244 0.5223938570433398 4.333273230638893 7.4012845851022595 1.315312803430326 2.6433313868659805 4.021896464858591 12.124024107650499" Properties=species:S:1:pos:R:3 unique_starting_index=40 config_type=initial n_minim_iter=2 stress="-0.0005992682278381157 0.000559216948143421 -0.00038464626260074425 0.000559216948143421 -0.0008366616764937393 -0.0003331762861653057 -0.00038464626260074425 -0.0003331762861653057 -0.001158046740593895" pbc="T T T"
Si       9.33680447       7.72846016      11.02494577
Si       2.70365047       4.48378042       4.62763870
Si       6.06758512       3.36562693       5.76423351
Si       6.35284234       8.99756158      10.73895514
Si       5.81078447       5.55744919      11.17046468
Si       8.43927245       8.34462101       5.56910601
Si       7.32862131       3.80021963       2.43520600
Si       7.94981324       8.79337187       7.78889520
Si       5.17680869       3.44721596       1.58842677
Si       8.11547703       9.46495554      12.36929224
Si       6.40526298       7.47758969       8.91919798
Si       5.24043630      10.92862991       9.69353360
Si       2.98549756       3.58663355       0.51268760
Si       2.86515318       3.59369469       6.85031013
Si       5.38832465       3.42556965      12.23804720
Si       9.99008489       8.44025026       8.82741785
Si       5.07372303       6.14348231       5.14768381
Si       6.13390351       8.27544866       5.05135066
Si       6.77269871       5.78403005       3.56729000
Si       4.89498706       4.86853380       7.28962978
Si       8.15891268       5.82251850      11.94508694
Si       4.52858896       3.21281169       3.85992132
22
Lattice="5.831296354278725 1.5260881418026644 0.5196313986177867 4.348720264752615 7.410136641747739 1.3157576465251497 2.6450649607911547 4.029247006901273 12.139171630517545" Properties=species:S:1:pos:R:3 unique_starting_index=40 config_type=initial n_minim_iter=3 stress="0.002693076388790016 0.0008302252588175107 -0.0007981526019399758 0.0008302252588175107 0.0017890280817795148 -3.147686087053826e-05 -0.0007981526019399758 -3.147686087053826e-05 0.0010021401548829505" pbc="T T T"
Si       9.35931648       7.74519503      11.03209265
Si       2.70801323       4.48775417       4.63252279
Si       6.07887182       3.37253174       5.76794455
Si       6.36798284       9.01019426      10.75244383
Si       5.82346458       5.56533104      11.18489873
Si       8.46394461       8.35906785       5.57343821
Si       7.34916263       3.80353420       2.44148116
Si       7.97144840       8.80702189       7.79495475
Si       5.19318302       3.45344059       1.58707552
Si       8.13543961       9.48018301      12.38142611
Si       6.42110937       7.48841670       8.92912298
Si       5.25649090      10.94217868       9.70101397
Si       2.99347455       3.59169885       0.50980215
Si       2.86988494       3.60465459       6.85865080
Si       5.39820793       3.43451870      12.24930515
Si      10.01670265       8.45661937       8.83623515
Si       5.08706541       6.15356231       5.15192676
Si       6.15184355       8.28878152       5.05604520
Si       6.79027476       5.79573604       3.56912550
Si       4.90315995       4.87958598       7.29748300
Si       8.17422479       5.83213293      11.95658814
Si       4.54220689       3.22216768       3.86321257
22
Lattice="5.817647124970422 1.5144480354236594 0.529093987151133 4.330837763630924 7.386748917312216 1.3284039842273452 2.6501309705983047 4.024839278493511 12.156324673332865" Properties=species:S:1:pos:R:3 unique_starting_index=40 config_type=initial n_minim_iter=4 stress="0.00047413282132811283 -0.0001628242778283705 -0.0002149098627919969 -0.0001628242778283705 -0.0006900627432183572 0.0008868122835332776 -0.0002149098627919969 0.0008868122835332776 -0.000544003492654512" pbc="T T T"
Si       9.34482843       7.72450345      11.05474835
Si       2.69708521       4.47235193       4.64273343
Si       6.06427536       3.35755937       5.78253525
Si       6.35553196       8.98556468      10.78012833
Si       5.82096245       5.54671543      11.21090405
Si       8.44386773       8.33252306       5.59726164
Si       7.33384135       3.77583854       2.46904929
Si       7.95312760       8.77944015       7.81789809
Si       5.18350900       3.43801363       1.59655100
Si       8.12308967       9.45428119      12.40877366
Si       6.40960552       7.46573555       8.95238548
Si       5.24515977      10.91480594       9.71685297
Si       2.97919692       3.57894325       0.51274619
Si       2.86680929       3.60594521       6.87200394
Si       5.40204516       3.42726209      12.26580154
Si       9.99798223       8.43044887       8.86735553
Si       5.07376425       6.13679395       5.16681440
Si       6.13383306       8.26623582       5.07637223
Si       6.77018110       5.77784171       3.58630355
Si       4.89032538       4.87060147       7.31471122
Si       8.16225754       5.80954048      11.98180476
Si       4.53790569       3.21612526       3.87590875
22
Lattice="5.809874356819095 1.5157496086071354 0.5305342315985434 4.326791877701937 7.390748331784209 1.3197564591934683 2.654311978726721 4.007627152385155 12.163666788032126" Properties=species:S:1:pos:R:3 unique_starting_index=40 config_type=initial n_minim_iter=5 stress="-0.0003752669472576507 0.00012268330586582575 -0.000121540163174857 0.00012268330586582575 -8.140642396653038e-05 -0.0003581881998271922 -0.000121540163174857 -0.0003581881998271922 0.00011733871189065058" pbc="T T T"
Si       9.33967032       7.71363704      11.05766967
Si       2.69556742       4.46739686       4.64124530
Si       6.05829064       3.35082295       5.78639090
Si       6.35435567       8.97463404      10.78023785
Si       5.82085969       5.53178742      11.21729169
Si       8.43704614       8.33103853       5.59410194
Si       7.32588211       3.77419254       2.47180538
Si       7.94811321       8.77431859       7.81579241
Si       5.17868704       3.43855180       1.59506358
Si       8.12102168       9.44156884      12.41005458
Si       6.40746010       7.45694390       8.95318684
Si       5.24591023      10.90711026       9.70956694
Si       2.97491378       3.58087511       0.50822968
Si       2.86718357       3.59921236       6.87474633
Si       5.40295883       3.40934183      12.27515619
Si       9.99077670       8.42431356       8.86870229
Si       5.07039426       6.13391194       5.16449802
Si       6.12989098       8.26493335       5.07259516
Si       6.76305470       5.77798080       3.58395088
Si       4.88745491       4.86376143       7.31690351
Si       8.15828816       5.79369673      11.98897450
Si       4.53531298       3.21427581       3.87715540
22
Lattice="5.816421734803026 1.518728632734 0.5441638298931656 4.335005395411651 7.4010583171392295 1.3293255643737503 2.6872784825823377 4.015591992355074 12.147120326510544" Properties=species:S:1:pos:R:3 unique_starting_index=40 config_type=initial n_minim_iter=6 stress="0.0006663099717888764 0.00020648841535375256 0.0016847278348607218 0.00020648841535375256 0.000868252755966988 -0.00017798451470536853 0.0016847278348607218 -0.00017798451470536853 -0.001383625161881066" pbc="T T T"
Si       9.37658387       7.72618106      11.05900311
Si       2.70459998       4.47197813       4.63928088
Si       6.07169934       3.35608340       5.79227193
Si       6.38730982       8.98777479      10.77694649
Si       5.85576084       5.53856890      11.21151648
Si       8.46164693       8.34530173       5.60599269
Si       7.34057309       3.77926903       2.48955439
Si       7.97608637       8.79185917       7.82421793
Si       5.19183513       3.44348879       1.60348524
Si       8.16211035       9.45580694      12.40778123
Si       6.43979345       7.46953670       8.95510228
Si       5.27737810      10.92242730       9.69950464
Si       2.97548754       3.58183484       0.51448379
Si       2.88596436       3.60920944       6.86710532
Si       5.44043953       3.41205584      12.26430141
Si      10.02132488       8.44431599       8.87858063
Si       5.08635826       6.14529183       5.16855788
Si       6.15216801       8.27431635       5.09030740
Si       6.77651985       5.78978188       3.59000478
Si       4.90809647       4.87698419       7.31385111
Si       8.19628546       5.80138014      11.98460074
Si       4.55305731       3.22589894       3.87965527
22
Lattice="5.808905146021362 1.5133748793638497 0.5374317117487154 4.32267382728397 7.393237894418819 1.3339685499216882 2.661229127824074 4.025101055448738 12.173064566370897" Properties=species:S:1:pos:R:3 unique_starting_index=40 config_type=initial n_minim_iter=7 stress="-0.00034868095483964087 -0.0007524565338948129 1.3783716252190943e-05 -0.0007524565338948129 0.001181090767310735 0.00043901036632374747 1.3783716252190943e-05 0.00043901036632374747 0.0002517005025584608" pbc="T T T"
Si       9.34369116       7.72344592      11.07367626
Si       2.68026257       4.46783874       4.64883982
Si       6.04093314       3.35339893       5.80176868
Si       6.35501483       8.98616158      10.80071211
Si       5.82938650       5.53672914      11.23324282
Si       8.44203936       8.34094707       5.61399787
Si       7.32943997       3.77095265       2.49388645
Si       7.94926888       8.79515222       7.84319431
Si       5.18948721       3.43741593       1.59848453
Si       8.12963171       9.45378044      12.43230075
Si       6.41907094       7.46965880       8.97620728
Si       5.24913993      10.91889365       9.71330499
Si       2.96222314       3.56885849       0.51377774
Si       2.86682282       3.61854917       6.87745796
Si       5.41558328       3.41046898      12.28343061
Si       9.98789750       8.45190418       8.89210516
Si       5.06368471       6.14616525       5.17938893
Si       6.13732865       8.26289472       5.12163036
Si       6.75566660       5.78870276       3.58437009
Si       4.88285623       4.88704929       7.32381187
Si       8.16504995       5.79856864      11.99889010
Si       4.54632459       3.23520104       3.88107605
22
Lattice="5.8171170954852025 1.5143705768862676 0.5395372934516521 4.334108523555712 7.379258696681347 1.3346384614452098 2.671685680810376 4.014191620091577 12.18642124767019" Properties=species:S:1:pos:R:3 unique_starting_index=40 config_type=initial n_minim_iter=8 stress="0.0004395697282417593 -0.0003382693659814003 0.00042545595580815776 -0.0003382693659814003 -0.00039208990669578305 2.9766297701836225e-05 0.00042545595580815776 2.9766297701836225e-05 0.0008844017023546875" pbc="T T T"
Si       9.36474361       7.70899313      11.08663316
Si       2.68653181       4.45775453       4.65278124
Si       6.05008769       3.34822738       5.81023269
Si       6.37312890       8.96675485      10.81246806
Si       5.84486918       5.52370120      11.24606307
Si       8.46199853       8.32758682       5.62085934
Si       7.34260968       3.76649873       2.50019096
Si       7.96830524       8.78062162       7.85264852
Si       5.20036106       3.43268815       1.59995841
Si       8.15154932       9.43390980      12.44605484
Si       6.43678608       7.45458872       8.98696575
Si       5.26748964      10.89456017       9.72059397
Si       2.96781519       3.56067098       0.51403656
Si       2.87505493       3.61144041       6.88435185
Si       5.42952751       3.40142107      12.29729999
Si      10.00952574       8.44028368       8.90316151
Si       5.07552556       6.13521448       5.18492063
Si       6.15375552       8.24651702       5.13125024
Si       6.76818438       5.78038240       3.58745297
Si       4.89391249       4.87958952       7.33157023
Si       8.18374354       5.78688915      12.01245706
Si       4.55627898       3.23230394       3.88531410
22
Lattice="5.82214347027085 1.5337249516151188 0.5297456093505762 4.356673296390529 7.3951686451842065 1.3286275261401561 2.66543101152199 4.0296941626082265 12.15860362994653" Properties=species:S:1:pos:R:3 unique_starting_index=40 config_type=initial n_minim_iter=9 stress="-0.00048648783067583163 0.0012670048375664257 -0.00047255867962760743 0.0012670048375664257 -0.0003966443442536416 -0.000107184137892324 -0.00047255867962760743 -0.000107184137892324 -0.0007951072344471903" pbc="T T T"
Si       9.37437910       7.74287912      11.05179242
Si       2.68722290       4.46891064       4.63564520
Si       6.04380181       3.36947970       5.79394339
Si       6.38569533       8.99300461      10.78545483
Si       5.84684256       5.54416635      11.21402480
Si       8.48812743       8.36319083       5.60215930
Si       7.35450527       3.78691287       2.49502515
Si       7.98566268       8.81786939       7.82826286
Si       5.21438555       3.44809824       1.58621677
Si       8.16484361       9.46544555      12.41080316
Si       6.45070916       7.47957741       8.96383247
Si       5.28764772      10.91724926       9.69143444
Si       2.97851533       3.56158333       0.50960907
Si       2.87497543       3.62848097       6.86483210
Si       5.42348616       3.42072764      12.26065759
Si      10.02698018       8.48901998       8.87379391
Si       5.08594566       6.15742557       5.16747766
Si       6.17535900       8.27108052       5.12964496
Si       6.77639704       5.80707519       3.56929698
Si       4.89482257       4.90792757       7.30892617
Si       8.18641143       5.81680044      11.97344368
Si       4.56125101       3.25659472       3.86860193
22
Lattice="5.828514420268286 1.523213947627653 0.5227150648007426 4.350346951681255 7.384788059550455 1.3151925905608062 2.653522119196892 4.01140253907331 12.132308960316758" Properties=species:S:1:pos:R:3 unique_starting_index=40 config_type=initial n_minim_iter=10 stress="0.000238855173086559 0.00039029252290878207 -0.0008300826464563454 0.00039029252290878207 -0.0006278288975493458 -0.0008068764561536456 -0.0008300826464563454 -0.0008068764561536456 -0.0014808547088105703" pbc="T T T"
Si       9.36860585       7.71058725      11.01874526
Si       2.67641657       4.45999073       4.61603388
Si       6.03751361       3.35141177       5.77995647
Si       6.37288325       8.96789463      10.75406576
Si       5.83888394       5.51813327      11.18240879
Si       8.48916951       8.34449890       5.57956731
Si       7.35954247       3.76797433       2.48812104
Si       7.97750102       8.79837681       7.79973352
Si       5.21848550       3.43428368       1.57324953
Si       8.15312965       9.43446152      12.37332906
Si       6.44389952       7.45658651       8.93750875
Si       5.26935541      10.89501948       9.65728277
Si       2.97854659       3.54677238       0.50325895
Si       2.86754581       3.61735897       6.84584374
Si       5.41747008       3.39454195      12.22951086
Si      10.02497857       8.46912286       8.84290078
Si       5.07910214       6.14389157       5.14696781
Si       6.16843169       8.25459762       5.11894947
Si       6.76973939       5.79112965       3.55077834
Si       4.88627602       4.89646569       7.28666748
Si       8.18275190       5.78758589      11.93850166
Si       4.55786977       3.24810582       3.85273645
22
Lattice="5.824056815339992 1.5221038432625758 0.5321241518110046 4.345110359429611 7.388492278446751 1.3337008008959632 2.662884910520147 4.032520248905426 12.154199467518739" Properties=species:S:1:pos:R:3 unique_starting_index=40 config_type=initial n_minim_iter=11 stress="0.00011776196358566636 -6.017364846250618e-05 -0.00020217616273409991 -6.017364846250618e-05 -0.0001491863735480614 -0.00021217479284549407 -0.00020217616273409991 -0.00021217479284549407 -0.00036516690481570526" pbc="T T T"
Si       9.37223221       7.71964952      11.05510076
Si       2.66842305       4.47444675       4.61691395
Si       6.02333551       3.35733615       5.80870794
Si       6.37659337       8.98547012      10.78922947
Si       5.84550088       5.52916576      11.20062857
Si       8.49993453       8.36204363       5.61322898
Si       7.35816436       3.76286724       2.52224784
Si       7.97539401       8.82200140       7.83157488
Si       5.22135644       3.42884092       1.57981778
Si       8.15705962       9.45004475      12.40851285
Si       6.45188772       7.46961291       8.96882301
Si       5.26745917      10.91267924       9.68650931
Si       2.98067400       3.52486601       0.51557425
Si       2.86937149       3.63310323       6.85760384
Si       5.42650411       3.40553640      12.24490262
Si      10.03098949       8.50455507       8.87770003
Si       5.07664805       6.15798519       5.16383671
Si       6.16769511       8.26834733       5.17456614
Si       6.75191348       5.79653362       3.56846444
Si       4.88198375       4.92308955       7.30441329
Si       8.19320410       5.80299952      11.96184181
Si       4.54873200       3.26327274       3.86028217
22
Lattice="5.820865962465785 1.5237205561045657 0.5415384332758876 4.343692733581446 7.394333910021386 1.3526601711756432 2.6742106838118387 4.055913585396168 12.175242497642328" Properties=species:S:1:pos:R:3 unique_starting_index=40 config_type=initial n_minim_iter=12 stress="-7.577189299808823e-05 -0.00028719060957105226 0.00040927620992630814 -0.00028719060957105226 0.00040513210406758636 0.000348177561378915 0.00040927620992630814 0.000348177561378915 0.0007341134446096865" pbc="T T T"
Si       9.38187021       7.73673058      11.08838945
Si       2.66375665       4.49533433       4.61780912
Si       6.01045262       3.36727897       5.83842903
Si       6.38543350       9.00625124      10.82427994
Si       5.85591604       5.54415623      11.21677695
Si       8.51414001       8.38252882       5.64499247
Si       7.35676340       3.76195172       2.55708163
Si       7.97961990       8.84599302       7.86521471
Si       5.22732264       3.42445177       1.58817798
Si       8.16557656       9.46921450      12.44205507
Si       6.46636642       7.48777655       9.00018062
Si       5.27003923      10.93365294       9.71803227
Si       2.98627537       3.50263781       0.52962180
Si       2.87192317       3.65379918       6.86779736
Si       5.43799278       3.41845045      12.25773211
Si      10.04053209       8.54426187       8.91187947
Si       5.07908426       6.17784003       5.18218422
Si       6.17115708       8.28744712       5.23102552
Si       6.73688946       5.80263066       3.58377017
Si       4.87947362       4.95266357       7.32255620
Si       8.20607413       5.82225015      11.98428603
Si       4.53920777       3.27930322       3.86742462
22
Lattice="5.831018329674963 1.5283283984002072 0.5364609428931142 4.356592052966602 7.3932790424179835 1.348678215250679 2.6727480979696554 4.05788671137292 12.155084020682962" Properties=species:S:1:pos:R:3 unique_starting_index=40 config_type=initial n_minim_iter=13 stress="7.632828248704423e-05 -9.303570519040315e-05 -3.580775617308144e-05 -9.303570519040315e-05 -0.00020392610429321317 -8.74421363472564e-05 -3.580775617308144e-05 -8.74421363472564e-05 2.783041989534849e-05" pbc="T T T"
Si       9.40201493       7.74913495      11.05635371
Si       2.66645659       4.51353848       4.60362179
Si       6.00754552       3.37311431       5.83398214
Si       6.39725990       9.00384552      10.80653550
Si       5.86545955       5.54475200      11.18949206
Si       8.53189151       8.38452191       5.62635334
Si       7.36301767       3.76438629       2.55801013
Si       7.99997820       8.84138034       7.85427278
Si       5.24493834       3.41887437       1.58538665
Si       8.17770807       9.46511562      12.41354817
Si       6.48740416       7.49313990       8.98602893
Si       5.27723968      10.93168553       9.70525920
Si       2.99981644       3.48742072       0.53356043
Si       2.86942628       3.66729595       6.84915723
Si       5.44367028       3.41300333      12.22511586
Si      10.05768190       8.55459112       8.89133961
Si       5.09499133       6.19329373       5.17622311
Si       6.18505251       8.29626009       5.23548979
Si       6.74324020       5.79747673       3.56380550
Si       4.87989123       4.96158920       7.30974038
Si       8.21440159       5.82250077      11.95657214
Si       4.53717510       3.28139588       3.85572498
22
Lattice="5.835299423033465 1.5417420896500804 0.540179894753111 4.372386379153287 7.409196131678903 1.361602381607048 2.684440735006528 4.087153029869768 12.151853730563806" Properties=species:S:1:pos:R:3 unique_starting_index=40 config_type=initial n_minim_iter=14 stress="-0.00016664532782295036 0.0004998161048097495 -8.190610457742689e-05 0.0004998161048097495 0.0005890934768128047 0.0001761705123368296 -8.190610457742689e-05 0.0001761705123368296 -0.00039799828326199865" pbc="T T T"
Si       9.42629690       7.79248690      11.05538629
Si       2.66159123       4.53792864       4.59345306
Si       5.99271061       3.39615678       5.84574804
Si       6.41842501       9.03467915      10.81859646
Si       5.88455629       5.56832689      11.18862797
Si       8.55713167       8.42390022       5.63929530
Si       7.37357770       3.77574213       2.58098339
Si       8.02461749       8.88931658       7.86546683
Si       5.26491214       3.42391722       1.58684201
Si       8.20598934       9.49857850      12.41766346
Si       6.51369979       7.52364586       9.00023129
Si       5.30107604      10.96312123       9.70768693
Si       3.00682435       3.47276575       0.54495473
Si       2.87323854       3.69572356       6.84154167
Si       5.46201761       3.42981364      12.20633909
Si      10.08842015       8.61495880       8.90268663
Si       5.11503914       6.23352104       5.18745527
Si       6.20659138       8.32973660       5.28212263
Si       6.74519259       5.82349743       3.56252560
Si       4.88275185       5.00146915       7.31247532
Si       8.23444234       5.85550134      11.94928814
Si       4.54305434       3.30953834       3.85736396
22
Lattice="5.835081126215134 1.5374642876045836 0.5432114424353794 4.367638739986976 7.406935337031442 1.366161729076665 2.6866350878628915 4.089520489195024 12.15688980610291" Properties=species:S:1:pos:R:3 unique_starting_index=40 config_type=initial n_minim_iter=15 stress="-0.0001430672174497776 -3.798843855657291e-06 -5.03496563405298e-05 -3.798843855657291e-06 -0.00014174375542001487 -7.617480718757423e-05 -5.03496563405298e-05 -7.617480718757423e-05 -8.254111344334755e-05" pbc="T T T"
Si       9.42653586       7.79522041      11.06179905
Si       2.66261950       4.54709761       4.59210312
Si       5.99181655       3.39798628       5.84967059
Si       6.41610245       9.03118426      10.82785851
Si       5.88498125       5.57013833      11.19762352
Si       8.54339285       8.41854906       5.64358786
Si       7.36843552       3.77332580       2.57669446
Si       8.02412143       8.88769601       7.86998603
Si       5.26077969       3.41593013       1.59452551
Si       8.20572924       9.49281891      12.42558043
Si       6.50976793       7.52129882       9.00853136
Si       5.29587364      10.96267386       9.72286349
Si       3.00841945       3.46976908       0.55497276
Si       2.87105951       3.69011438       6.84222885
Si       5.46697609       3.42618462      12.20555795
Si      10.09302599       8.60456905       8.90848739
Si       5.12530643       6.24307147       5.20032866
Si       6.19763971       8.33627097       5.28516075
Si       6.74572681       5.81852628       3.56801356
Si       4.88406667       4.99328707       7.32225159
Si       8.23739930       5.85810381      11.95671513
Si       4.53806328       3.29905199       3.86745131
22
Lattice="5.839300978291802 1.53762771319838 0.5483224081257001 4.371053693678586 7.4080828484546775 1.3749053467176202 2.6961765038967944 4.098495171619283 12.166079544682965" Properties=species:S:1:pos:R:3 unique_starting_index=40 config_type=initial n_minim_iter=16 stress="0.00061387982472591 -0.0002488759992119595 0.00023887918588429364 -0.0002488759992119595 0.00036296127821601926 0.000252738603216344 0.00023887918588429364 0.000252738603216344 0.0005223391294354185" pbc="T T T"
Si       9.43964130       7.80068320      11.07767945
Si       2.66277971       4.55354812       4.58852278
Si       5.98657611       3.40390208       5.86117128
Si       6.42563778       9.03502280      10.84648861
Si       5.89656375       5.57420146      11.21158255
Si       8.55659433       8.42453173       5.65828446
Si       7.37522622       3.77007913       2.59293171
Si       8.03512948       8.89728020       7.88753471
Si       5.26637802       3.40949443       1.59932130
Si       8.22189769       9.49503788      12.44038993
Si       6.52676342       7.52744410       9.02335055
Si       5.30475446      10.96656489       9.73456521
Si       3.01444609       3.45658149       0.56409990
Si       2.87302368       3.69850643       6.84404859
Si       5.48142041       3.42621309      12.20627997
Si      10.10949581       8.61959467       8.91861883
Si       5.13665470       6.25683253       5.21568302
Si       6.20195298       8.35329400       5.31246151
Si       6.74640268       5.82459382       3.57266475
Si       4.88766468       5.00096815       7.33287952
Si       8.25588876       5.86721635      11.96481859
Si       4.54108140       3.30679581       3.87509126
22
Lattice="5.838593446525224 1.539164016943704 0.5465372119189361 4.372461707575511 7.4078881942886206 1.3712507129234581 2.6946156325963386 4.094639536257934 12.161441834609496" Properties=species:S:1:pos:R:3 unique_starting_index=40 config_type=initial n_minim_iter=17 stress="0.00017993221102409213 -5.649482834006559e-05 7.43853568106464e-05 -5.649482834006559e-05 0.0001134555074572018 7.12615599947022e-05 7.43853568106464e-05 7.12615599947022e-05 0.00012732859549043998" pbc="T T T"
Si       9.43766799       7.79916662      11.07074862
Si       2.66408062       4.55083585       4.58572612
Si       5.98510027       3.40469673       5.85591847
Si       6.42456549       9.03153854      10.84038420
Si       5.89468873       5.57236820      11.20849031
Si       8.55563394       8.42267740       5.65237173
Si       7.37385212       3.77209466       2.58773250
Si       8.03491775       8.89449695       7.88214294
Si       5.26461884       3.40999904       1.59775772
Si       8.22149148       9.49154623      12.43287107
Si       6.52688926       7.52557992       9.01699489
Si       5.30613781      10.96250026       9.72784608
Si       3.01526304       3.45792205       0.56278248
Si       2.87164453       3.69647752       6.84023542
Si       5.47915446       3.42334840      12.20101229
Si      10.10797835       8.61657836       8.90948463
Si       5.13779795       6.25667275       5.21375516
Si       6.20161804       8.35530604       5.30497990
Si       6.74751733       5.82632189       3.56783722
Si       4.88738661       4.99648259       7.32948891
Si       8.25449546       5.86621241      11.95821834
Si       4.54198141       3.30619726       3.87336121
22
Lattice="5.838061598215449 1.5408536562864152 0.5444990619158575 4.374410467963607 7.406686583239386 1.3674842494757924 2.692787100523726 4.090302797219288 12.157360254229408" Properties=species:S:1:pos:R:3 unique_starting_index=40 config_type=initial n_minim_iter=18 stress="-0.00036237351017610794 0.00013823445119075226 -0.00013904767743565493 0.00013823445119075226 -0.0002038765144248088 -0.00013962912504220706 -0.00013904767743565493 -0.00013962912504220706 -0.0002972143966613145" pbc="T T T"
Si       9.43673904       7.79684200      11.06265893
Si       2.66532516       4.54770770       4.58204939
Si       5.98164061       3.40622950       5.85105051
Si       6.42324200       9.02640327      10.83516703
Si       5.89287790       5.56983436      11.20585913
Si       8.55619893       8.41971216       5.64727080
Si       7.37147806       3.77507042       2.58242624
Si       8.03487159       8.89030143       7.87708262
Si       5.26338585       3.40969865       1.59649832
Si       8.22118022       9.48578258      12.42543944
Si       6.52775225       7.52199798       9.01097403
Si       5.30765524      10.95640288       9.72181919
Si       3.01734181       3.45675454       0.56226244
Si       2.86941306       3.69471212       6.83562899
Si       5.47667082       3.41952476      12.19524841
Si      10.10755310       8.61356236       8.89990103
Si       5.13997440       6.25718445       5.21295745
Si       6.20262578       8.35840967       5.29978371
Si       6.74768452       5.82866171       3.56183905
Si       4.88661763       4.99112862       7.32685483
Si       8.25377565       5.86432075      11.95065109
Si       4.54317819       3.30560489       3.87090216
22
Lattice="5.840098264507695 1.5397218932550407 0.5465094120632948 4.3755843319780166 7.403156196883264 1.370517777270262 2.6963855609067755 4.090118975843924 12.16606740265543" Properties=species:S:1:pos:R:3 unique_starting_index=40 config_type=initial n_minim_iter=19 stress="2.680580940318886e-05 8.756870612635933e-06 -3.0365967057333136e-05 8.756870612635933e-06 3.763073164813804e-05 -5.144887744138115e-06 -3.0365967057333136e-05 -5.144887744138115e-06 5.263266335719937e-07" pbc="T T T"
Si       9.44503587       7.79321201      11.06827972
Si       2.66601006       4.54455947       4.58305714
Si       5.97974151       3.40751443       5.85656720
Si       6.42558137       9.02197552      10.84625485
Si       5.89754119       5.56793563      11.21552106
Si       8.56428565       8.41573743       5.65837873
Si       7.37094608       3.77643428       2.58754087
Si       8.03728298       8.88598343       7.88472315
Si       5.26586017       3.40689340       1.59981951
Si       8.22553920       9.47982517      12.43594703
Si       6.53112334       7.51540609       9.01963180
Si       5.31031469      10.95101056       9.73142988
Si       3.02078188       3.44988651       0.56583184
Si       2.86967511       3.69496996       6.83875557
Si       5.48104583       3.41875778      12.20253724
Si      10.11563602       8.61233809       8.90876391
Si       5.14445495       6.25760262       5.22062266
Si       6.20892546       8.36103166       5.31119269
Si       6.74597524       5.83140061       3.56545511
Si       4.88796875       4.98838801       7.33553038
Si       8.26113150       5.86087304      11.95719191
Si       4.54694522       3.30486951       3.87232794
22
Lattice="5.840942778680585 1.5391522947458554 0.5496377882810765 4.376724169960426 7.399668904105679 1.3747286460646502 2.7019591647889056 4.090718216436408 12.174811207072432" Properties=species:S:1:pos:R:3 unique_starting_index=40 config_type=initial n_minim_iter=20 stress="0.00012246450192007774 -8.902402705518518e-05 0.00011684793118469278 -8.902402705518518e-05 1.001938844504188e-05 6.809968294876545e-05 0.00011684793118469278 6.809968294876545e-05 0.00012832722415758322" pbc="T T T"
Si       9.45446973       7.79099204      11.07442196
Si       2.66630744       4.54316565       4.58304946
Si       5.97733610       3.40989256       5.86264644
Si       6.42912018       9.01695557      10.85798075
Si       5.90385116       5.56699073      11.22510063
Si       8.57323469       8.41204406       5.67093553
Si       7.36920671       3.77887239       2.59628930
Si       8.04081107       8.88211153       7.89558953
Si       5.26821865       3.40260424       1.60252927
Si       8.23142565       9.47466811      12.44690812
Si       6.53592533       7.51032753       9.03075175
Si       5.31409020      10.94487990       9.74242049
Si       3.02379561       3.44228871       0.57150084
Si       2.87001769       3.69501156       6.84166188
Si       5.48670604       3.41781458      12.20918618
Si      10.12265311       8.61290848       8.91851609
Si       5.15104539       6.26100912       5.23097070
Si       6.21587337       8.36527689       5.32496619
Si       6.74305522       5.83594817       3.57014067
Si       4.88938542       4.98691591       7.34608695
Si       8.26967065       5.85842281      11.96422533
Si       4.54957787       3.30368065       3.87463666
22
Lattice="5.839939648377414 1.5406184315875067 0.5506832104425258 4.3778173712194715 7.400457579381923 1.3754035170255807 2.7044713367792683 4.0907330399074295 12.177303411198668" Properties=species:S:1:pos:R:3 unique_starting_index=40 config_type=initial n_minim_iter=21 stress="-4.210132724916995e-05 1.1660379159820986e-05 -1.4535935829899561e-05 1.1660379159820986e-05 -2.421720855280659e-05 -1.2558402368526006e-05 -1.4535935829899561e-05 -1.2558402368526006e-05 -2.9613333841803715e-05" pbc="T T T"
Si       9.45810979       7.79167341      11.07383865
Si       2.66579724       4.54161199       4.58177186
Si       5.97941232       3.41363985       5.85945460
Si       6.42990494       9.01415110      10.85896373
Si       5.90653954       5.56975059      11.22728333
Si       8.57985727       8.41062324       5.67598807
Si       7.36664524       3.78683843       2.60210705
Si       8.04214104       8.88103829       7.90212662
Si       5.26807361       3.40022744       1.59779461
Si       8.23381626       9.47701117      12.44790644
Si       6.53539306       7.51084087       9.03615871
Si       5.31629125      10.94083624       9.74580897
Si       3.02240113       3.44501465       0.57528136
Si       2.86928836       3.69043415       6.84261495
Si       5.48659751       3.41908074      12.21205278
Si      10.12015550       8.61460001       8.91857226
Si       5.15699920       6.26660449       5.23885959
Si       6.22193090       8.37011651       5.32453752
Si       6.74140498       5.84708616       3.57298777
Si       4.89018062       4.98572393       7.35284630
Si       8.27299497       5.85931834      11.96498076
Si       4.55052078       3.30033216       3.87495790
