18
Lattice="4.7591716496646 0.0 0.0 0.0 11.521834143725988 -7.089627243321312e-16 0.0 5.845593414222066e-16 9.500070381524159" Properties=species:S:1:pos:R:3 unique_starting_index=36 config_type=initial n_minim_iter=1 energy=-2923.4119204442386 free_energy=-2923.4119204442386 pbc="T T T"
Si       4.30915871      11.16011608       8.35971961
Si       0.45001294      11.16011608       1.14035077
Si       2.82959877      11.16011608       3.60968442
Si       1.92957288      11.16011608       5.89038596
Si      -0.04243951       2.02525550       1.36407980
Si       4.80161116       2.02525550       8.13599058
Si       2.42202534       2.02525550       6.11411499
Si       2.33714631       2.02525550       3.38595539
Si       0.76469315       8.58617936       2.19106033
Si       3.99447850       8.58617936       7.30901005
Si       1.61489268       8.58617936       6.94109552
Si       3.14427897       8.58617936       2.55897486
Si       2.64917840       0.62149544       1.22157050
Si       2.10999325       0.62149544       8.27849988
Si      -0.26959257       0.62149544       5.97160569
Si       5.02876422       0.62149544       3.52846469
Si      -0.00000000       9.02043940       0.00000000
Si       2.37958582       9.02043940       4.75003519
18
Lattice="4.667698047868669 0.0 0.0 0.0 11.277030285670238 -6.933586632364336e-16 0.0 5.838356055475672e-16 9.481063737380934" Properties=species:S:1:pos:R:3 unique_starting_index=36 config_type=initial n_minim_iter=2 stress="-0.01850899872994175 1.9663547323664884e-17 3.8291256375727835e-17 1.9663547323664884e-17 -0.009405575931548867 -2.7715979382915e-17 3.8291256375727835e-17 -2.7715979382915e-17 -0.011474245683367253" pbc="T T T"
Si       4.23019956      10.91311231       8.31502699
Si       0.43749849      10.91311231       1.16603675
Si       2.77134751      10.91311231       3.57449512
Si       1.89635054      10.91311231       5.90656862
Si      -0.04247886       1.98035397       1.38967817
Si       4.71017690       1.98035397       8.09138556
Si       2.37632788       1.98035397       6.13021004
Si       2.29137017       1.98035397       3.35085370
Si       0.75422734       8.41516155       2.18446089
Si       3.91347071       8.41516155       7.29660285
Si       1.57962169       8.41516155       6.92499276
Si       3.08807636       8.41516155       2.55607098
Si       2.61329505       0.61767990       1.19653517
Si       2.05440300       0.61767990       8.28452856
Si      -0.27944602       0.61767990       5.93706704
Si       4.94714407       0.61767990       3.54399670
Si      -0.00000000       8.81069191       0.00000000
Si       2.33384902       8.81069191       4.74053187
18
Lattice="4.67672556405554 0.0 0.0 0.0 10.9602000440773 -6.847262275870728e-16 0.0 5.906546783761097e-16 9.737166479065042" Properties=species:S:1:pos:R:3 unique_starting_index=36 config_type=initial n_minim_iter=3 stress="-0.014621702841680496 -1.038527227291223e-17 3.837128711276808e-18 -1.038527227291223e-17 -0.008862771282408697 -4.907861937910408e-18 3.837128711276808e-18 -4.907861937910408e-18 0.004796464191259316" pbc="T T T"
Si       4.24893774      10.57990093       8.46360372
Si       0.42778783      10.57990093       1.27356276
Si       2.76615061      10.57990093       3.59502048
Si       1.91057495      10.57990093       6.14214600
Si      -0.04435115       1.92167305       1.50485055
Si       4.72107671       1.92167305       8.23231593
Si       2.38271393       1.92167305       6.37343379
Si       2.29401164       1.92167305       3.36373269
Si       0.76702640       8.20785907       2.23763369
Si       3.90969916       8.20785907       7.49953279
Si       1.57133638       8.20785907       7.10621693
Si       3.10538918       8.20785907       2.63094955
Si       2.65840172       0.62482111       1.16694034
Si       2.01832385       0.62482111       8.57022614
Si      -0.32003893       0.62482111       6.03552358
Si       4.99676450       0.62482111       3.70164290
Si      -0.00000000       8.51521372       0.00000000
Si       2.33836278       8.51521372       4.86858324
18
Lattice="4.764064858323385 0.0 0.0 0.0 10.949556291216826 -6.814521930420803e-16 0.0 5.805673689167969e-16 9.539709445162273" Properties=species:S:1:pos:R:3 unique_starting_index=36 config_type=initial n_minim_iter=4 stress="-0.004871585962864668 2.4046070299454665e-17 1.114806216550537e-16 2.4046070299454665e-17 -0.00712266691698685 -2.0013777390220096e-17 1.114806216550537e-16 -2.0013777390220096e-17 -0.005357365869231245" pbc="T T T"
Si       4.33473777      10.55449928       8.25569586
Si       0.42932709      10.55449928       1.28401358
Si       2.81135952      10.55449928       3.48584114
Si       1.95270534      10.55449928       6.05386830
Si      -0.04412437       1.92011370       1.51445509
Si       4.80818923       1.92011370       8.02525435
Si       2.42615680       1.92011370       6.28430981
Si       2.33790806       1.92011370       3.25539963
Si       0.78729117       8.21510749       2.18803938
Si       3.97677369       8.21510749       7.35167007
Si       1.59474126       8.21510749       6.95789410
Si       3.16932360       8.21510749       2.58181534
Si       2.72715301       0.63607684       1.11259671
Si       2.03691185       0.63607684       8.42711273
Si      -0.34512058       0.63607684       5.88245144
Si       5.10918544       0.63607684       3.65725801
Si      -0.00000000       8.48242150       0.00000000
Si       2.38203243       8.48242150       4.76985472
18
Lattice="4.742059631471733 0.0 0.0 0.0 11.27623019430357 -7.024335633348995e-16 0.0 5.809530794379532e-16 9.560267838618605" Properties=species:S:1:pos:R:3 unique_starting_index=36 config_type=initial n_minim_iter=5 stress="0.0001254216747391264 1.371254616669025e-17 1.4588710338984096e-16 1.371254616669025e-17 0.00622254220644754 1.239628307945434e-16 1.4588710338984096e-16 1.239628307945434e-16 0.000990524085869406" pbc="T T T"
Si       4.32099649      10.85908027       8.25737949
Si       0.42106315      10.85908027       1.30288835
Si       2.79209296      10.85908027       3.47724557
Si       1.94996667      10.85908027       6.08302226
Si      -0.03799820       1.98218820       1.54224739
Si       4.78005783       1.98218820       8.01802044
Si       2.40902802       1.98218820       6.32238131
Si       2.33303161       1.98218820       3.23788653
Si       0.78930850       8.46957697       2.19328708
Si       3.95275113       8.46957697       7.36698076
Si       1.58172132       8.46957697       6.97342100
Si       3.16033831       8.46957697       2.58684684
Si       2.72481628       0.65856857       1.10156617
Si       2.01724335       0.65856857       8.45870167
Si      -0.35378646       0.65856857       5.88170009
Si       5.09584609       0.65856857       3.67856775
Si      -0.00000000       8.72074295       0.00000000
Si       2.37102982       8.72074295       4.78013392
18
Lattice="4.800827283378411 0.0 0.0 0.0 10.948941768881559 -6.869305606597793e-16 0.0 5.813827221529422e-16 9.625639779143041" Properties=species:S:1:pos:R:3 unique_starting_index=36 config_type=initial n_minim_iter=6 stress="0.004304447363509059 -4.660791642132147e-17 1.2389463497137505e-16 -4.660791642132147e-17 -0.0022843032147462222 1.2011569541219851e-16 1.2389463497137505e-16 1.2011569541219851e-16 0.002242611334491071" pbc="T T T"
Si       4.38645685      10.53074921       8.30005773
Si       0.41437043      10.53074921       1.32558205
Si       2.81478408      10.53074921       3.48723784
Si       1.98604321      10.53074921       6.13840194
Si      -0.02592585       1.93081671       1.58421163
Si       4.82675314       1.93081671       8.04142815
Si       2.42633950       1.93081671       6.39703152
Si       2.37448779       1.93081671       3.22860826
Si       0.80772606       8.23722072       2.20924622
Si       3.99310123       8.23722072       7.41639356
Si       1.59268759       8.23722072       7.02206611
Si       3.20813970       8.23722072       2.60357367
Si       2.77251619       0.63898643       1.09954550
Si       2.02831109       0.63898643       8.52609428
Si      -0.37210255       0.63898643       5.91236539
Si       5.17292984       0.63898643       3.71327439
Si      -0.00000000       8.45560020       0.00000000
Si       2.40041364       8.45560020       4.81281989
18
Lattice="4.735160848660978 0.0 0.0 0.0 11.094157138169331 -6.975650729546889e-16 0.0 5.771260094305266e-16 9.58193252564025" Properties=species:S:1:pos:R:3 unique_starting_index=36 config_type=initial n_minim_iter=7 stress="-0.003701675380297483 -4.478070853626546e-17 1.4448791643000353e-16 -4.478070853626546e-17 -0.0008401010644779342 8.571970155033145e-17 1.4448791643000353e-16 8.571970155033145e-17 -0.0014633552973258208" pbc="T T T"
Si       4.35463399      10.65363583       8.27214072
Si       0.38052686      10.65363583       1.30979181
Si       2.74810729      10.65363583       3.48117445
Si       1.98705356      10.65363583       6.10075807
Si       0.00882147       1.97717394       1.61662412
Si       4.72633938       1.97717394       7.96530841
Si       2.35875896       1.97717394       6.40759038
Si       2.37640189       1.97717394       3.17434215
Si       0.81465636       8.36207648       2.20695945
Si       3.92050449       8.36207648       7.37497307
Si       1.55292406       8.36207648       6.99792571
Si       3.18223678       8.36207648       2.58400681
Si       2.75016114       0.63165425       1.10540912
Si       1.98499971       0.63165425       8.47652340
Si      -0.38258072       0.63165425       5.89637539
Si       5.11774156       0.63165425       3.68555714
Si      -0.00000000       8.56021564       0.00000000
Si       2.36758042       8.56021564       4.79096626
18
Lattice="4.745211690542067 0.0 0.0 0.0 11.123089299501844 -7.002798851119402e-16 0.0 5.760813524722427e-16 9.578001740166414" Properties=species:S:1:pos:R:3 unique_starting_index=36 config_type=initial n_minim_iter=8 stress="-0.0017296158669077282 -6.357741569982233e-17 1.4814141788604976e-16 -6.357741569982233e-17 7.360534935993016e-05 1.1459794116629432e-16 1.4814141788604976e-16 1.1459794116629432e-16 -0.00037709614226904767" pbc="T T T"
Si       4.38542687      10.67318261       8.28175526
Si       0.35978482      10.67318261       1.29624648
Si       2.73239066      10.67318261       3.49275439
Si       2.01282103      10.67318261       6.08524735
Si       0.03714397       1.99727197       1.63970458
Si       4.70806772       1.99727197       7.93829716
Si       2.33546188       1.99727197       6.42870545
Si       2.40974981       1.99727197       3.14929629
Si       0.83050701       8.39399524       2.21275524
Si       3.91470468       8.39399524       7.36524650
Si       1.54209883       8.39399524       7.00175611
Si       3.20311286       8.39399524       2.57624563
Si       2.76472921       0.61861628       1.11384777
Si       1.98048248       0.61861628       8.46415397
Si      -0.39212336       0.61861628       5.90284864
Si       5.13733505       0.61861628       3.67515310
Si      -0.00000000       8.57827654       0.00000000
Si       2.37260585       8.57827654       4.78900087
18
Lattice="4.773874376800375 0.0 0.0 0.0 11.11238925629486 -7.008340931471896e-16 0.0 5.74286063270293e-16 9.56514270549873" Properties=species:S:1:pos:R:3 unique_starting_index=36 config_type=initial n_minim_iter=9 stress="0.0008869590821777104 -8.533062972244357e-18 1.6956727701254811e-16 -8.533062972244357e-18 0.0006948262947239321 1.8807351764056404e-16 1.6956727701254811e-16 1.8807351764056404e-16 0.0007326900869849048" pbc="T T T"
Si       4.44074156      10.65925617       8.28166799
Si       0.33313282      10.65925617       1.28347471
Si       2.72007001      10.65925617       3.49909664
Si       2.05380437      10.65925617       6.06604606
Si       0.07591845       2.00988194       1.66901372
Si       4.69795593       2.00988194       7.89612899
Si       2.31101874       2.00988194       6.45158507
Si       2.46285564       2.00988194       3.11355763
Si       0.85672989       8.40071988       2.21849026
Si       3.91714449       8.40071988       7.34665244
Si       1.53020730       8.40071988       7.00106161
Si       3.24366708       8.40071988       2.56408109
Si       2.79368438       0.60120750       1.10911603
Si       1.98019000       0.60120750       8.45602667
Si      -0.40674719       0.60120750       5.89168739
Si       5.18062156       0.60120750       3.67345532
Si      -0.00000000       8.55230897       0.00000000
Si       2.38693719       8.55230897       4.78257135
18
Lattice="4.807303484947364 0.0 0.0 0.0 11.045619890480282 -6.966114954144167e-16 0.0 5.717052036756351e-16 9.521352620461595" Properties=species:S:1:pos:R:3 unique_starting_index=36 config_type=initial n_minim_iter=10 stress="0.0032777366684045746 2.5342489534672335e-17 1.6013873159521084e-16 2.5342489534672335e-17 0.0005192550889119917 1.206667233142891e-16 1.6013873159521084e-16 1.206667233142891e-16 -3.827187684615939e-05" pbc="T T T"
Si       4.47799156      10.62275057       8.25205887
Si       0.32931193      10.62275057       1.26929375
Si       2.73296367      10.62275057       3.49138256
Si       2.07433982      10.62275057       6.02997006
Si       0.09232167       1.98739980       1.64785378
Si       4.71498182       1.98739980       7.87349884
Si       2.31133007       1.98739980       6.40853009
Si       2.49597341       1.98739980       3.11282253
Si       0.87392607       8.35020186       2.21347492
Si       3.93337742       8.35020186       7.30787770
Si       1.52972568       8.35020186       6.97415123
Si       3.27757781       8.35020186       2.54720139
Si       2.80800123       0.59365708       1.08404620
Si       1.99930225       0.59365708       8.43730642
Si      -0.40434949       0.59365708       5.84472252
Si       5.21165297       0.59365708       3.67663011
Si      -0.00000000       8.47461091       0.00000000
Si       2.40365174       8.47461091       4.76067631
18
Lattice="4.787980881468229 0.0 0.0 0.0 11.03903200085993 -6.968885419545936e-16 0.0 5.7179928016619295e-16 9.531667860894848" Properties=species:S:1:pos:R:3 unique_starting_index=36 config_type=initial n_minim_iter=11 stress="-0.00019952084502080513 3.697097538316737e-17 1.3029539987883514e-16 3.697097538316737e-17 -0.0003184979559879068 1.3849932231912137e-16 1.3029539987883514e-16 1.3849932231912137e-16 -0.00031024892424111414" pbc="T T T"
Si       4.46500246      10.61531293       8.25893656
Si       0.32297842      10.61531293       1.27273130
Si       2.71696886      10.61531293       3.49310263
Si       2.07101202      10.61531293       6.03856523
Si       0.09948895       1.98682208       1.65812502
Si       4.68849193       1.98682208       7.87354284
Si       2.29450149       1.98682208       6.42395895
Si       2.49347939       1.98682208       3.10770891
Si       0.87588085       8.35020650       2.21749171
Si       3.91210003       8.35020650       7.31417615
Si       1.51810959       8.35020650       6.98332564
Si       3.26987129       8.35020650       2.54834222
Si       2.80148727       0.59366448       1.08236125
Si       1.98649361       0.59366448       8.44930661
Si      -0.40749683       0.59366448       5.84819518
Si       5.19547771       0.59366448       3.68347268
Si      -0.00000000       8.45985236       0.00000000
Si       2.39399044       8.45985236       4.76583393
18
Lattice="4.76614837203725 0.0 0.0 0.0 11.061491287182994 -6.992671360272249e-16 0.0 5.714242735950192e-16 9.539208119144018" Properties=species:S:1:pos:R:3 unique_starting_index=36 config_type=initial n_minim_iter=12 stress="-0.003616099664404111 8.946912256416943e-17 2.2622187270601e-16 8.946912256416943e-17 -0.0002837115347641507 1.1125380356648158e-16 2.2622187270601e-16 1.1125380356648158e-16 0.00035892382729765283" pbc="T T T"
Si       4.44814411      10.64111798       8.27501382
Si       0.31800427      10.64111798       1.26419430
Si       2.70107845      10.64111798       3.50540976
Si       2.06506992      10.64111798       6.03379836
Si       0.11502860       1.98628149       1.65653958
Si       4.65111977       1.98628149       7.88266854
Si       2.26804559       1.98628149       6.42614364
Si       2.49810278       1.98628149       3.11306448
Si       0.88392448       8.37376561       2.22462696
Si       3.88222389       8.37376561       7.31458116
Si       1.49914971       8.37376561       6.99423102
Si       3.26699867       8.37376561       2.54497710
Si       2.79183011       0.59898531       1.09256845
Si       1.97431827       0.59898531       8.44663967
Si      -0.40875592       0.59898531       5.86217251
Si       5.17490429       0.59898531       3.67703561
Si      -0.00000000       8.45644755       0.00000000
Si       2.38307419       8.45644755       4.76960406
18
Lattice="4.808305132878765 0.0 0.0 0.0 11.01364360837467 -6.957612421402702e-16 0.0 5.694381291696283e-16 9.499355775506283" Properties=species:S:1:pos:R:3 unique_starting_index=36 config_type=initial n_minim_iter=13 stress="0.0008682978938801146 2.7735189153152973e-17 2.69799975051932e-16 2.7735189153152973e-17 -0.00023264446038418277 1.3225252482039374e-16 2.69799975051932e-16 1.3225252482039374e-16 0.0007768242522684435" pbc="T T T"
Si       4.48184877      10.59556016       8.24177908
Si       0.32645637      10.59556016       1.25757670
Si       2.73060893      10.59556016       3.49210119
Si       2.07769620      10.59556016       6.00725458
Si       0.13630728       1.96216676       1.64453564
Si       4.67199785       1.96216676       7.85482014
Si       2.26784528       1.96216676       6.39421353
Si       2.54045985       1.96216676       3.10514225
Si       0.91360661       8.35417247       2.22226706
Si       3.89469852       8.35417247       7.27708872
Si       1.49054596       8.35417247       6.97194494
Si       3.31775918       8.35417247       2.52741083
Si       2.82275540       0.61881717       1.08957936
Si       1.98554974       0.61881717       8.40977641
Si      -0.41860283       0.61881717       5.83925725
Si       5.22690796       0.61881717       3.66009852
Si      -0.00000000       8.37186840       0.00000000
Si       2.40415257       8.37186840       4.74967789
18
Lattice="4.811895300313478 0.0 0.0 0.0 11.060111357364425 -6.962214764978039e-16 0.0 5.673957223759111e-16 9.436520218347217" Properties=species:S:1:pos:R:3 unique_starting_index=36 config_type=initial n_minim_iter=14 stress="0.0007499937656891887 3.0103022535960517e-17 3.1264311827594476e-16 3.0103022535960517e-17 0.001242355032102168 1.7296210620336466e-16 3.1264311827594476e-16 1.7296210620336466e-16 -0.0017155024710845065" pbc="T T T"
Si       4.48748066      10.62766261       8.20207200
Si       0.32441464      10.62766261       1.23444822
Si       2.73036229      10.62766261       3.48381189
Si       2.08153301      10.62766261       5.95270833
Si       0.15996383       1.97285750       1.63084974
Si       4.65193147       1.97285750       7.80567048
Si       2.24598382       1.97285750       6.34910985
Si       2.56591148       1.97285750       3.08741037
Si       0.93521091       8.40512600       2.21572302
Si       3.87668439       8.40512600       7.22079720
Si       1.47073674       8.40512600       6.93398313
Si       3.34115856       8.40512600       2.50253709
Si       2.82979712       0.62754788       1.08542425
Si       1.98209818       0.62754788       8.35109597
Si      -0.42384947       0.62754788       5.80368436
Si       5.23574477       0.62754788       3.63283586
Si      -0.00000000       8.38391615       0.00000000
Si       2.40594765       8.38391615       4.71826011
18
Lattice="4.800134990255409 0.0 0.0 0.0 10.98875651118319 -6.917014779358221e-16 0.0 5.693249360751335e-16 9.464082617290677" Properties=species:S:1:pos:R:3 unique_starting_index=36 config_type=initial n_minim_iter=15 stress="-0.00026466606234288307 7.620585909820981e-17 4.36510496875546e-16 7.620585909820981e-17 0.00025974716770291883 1.4135861701311184e-16 4.36510496875546e-16 1.4135861701311184e-16 -0.00035370160893801096" pbc="T T T"
Si       4.46250135      10.54572739       8.23243009
Si       0.33763364      10.54572739       1.23165253
Si       2.73770113      10.54572739       3.50038878
Si       2.06243386      10.54572739       5.96369384
Si       0.16614233       1.95632829       1.61494890
Si       4.63399266       1.95632829       7.84913372
Si       2.23392517       1.95632829       6.34699021
Si       2.56620982       1.95632829       3.11709241
Si       0.94882438       8.36396714       2.22777317
Si       3.85131061       8.36396714       7.23630945
Si       1.45124311       8.36396714       6.95981448
Si       3.34889188       8.36396714       2.50426814
Si       2.82300949       0.63787061       1.07893343
Si       1.97712550       0.63787061       8.38514919
Si      -0.42294200       0.63787061       5.81097473
Si       5.22307699       0.63787061       3.65310788
Si      -0.00000000       8.30929283       0.00000000
Si       2.40006750       8.30929283       4.73204131
18
Lattice="4.80301988047105 0.0 0.0 0.0 10.974122548111547 -6.90364542735607e-16 0.0 5.697835626207362e-16 9.465377544096715" Properties=species:S:1:pos:R:3 unique_starting_index=36 config_type=initial n_minim_iter=16 stress="-0.00010988506735681537 5.126181632284165e-17 4.955181420199966e-16 5.126181632284165e-17 -5.154368161752961e-05 1.8131315725750044e-16 4.955181420199966e-16 1.8131315725750044e-16 -0.00010201708535591493" pbc="T T T"
Si       4.46555275      10.53198584       8.23778348
Si       0.33746713      10.53198584       1.22759406
Si       2.73897707      10.53198584       3.50509471
Si       2.06404281      10.53198584       5.96028283
Si       0.17109801       1.95394661       1.61310032
Si       4.63192187       1.95394661       7.85227722
Si       2.23041193       1.95394661       6.34578909
Si       2.57260795       1.95394661       3.11958845
Si       0.95447350       8.35456895       2.23082620
Si       3.84854638       8.35456895       7.23455134
Si       1.44703644       8.35456895       6.96351498
Si       3.35598344       8.35456895       2.50186257
Si       2.82575237       0.63647659       1.08100675
Si       1.97726751       0.63647659       8.38437079
Si      -0.42424243       0.63647659       5.81369552
Si       5.22726231       0.63647659       3.65168202
Si      -0.00000000       8.29478364       0.00000000
Si       2.40150994       8.29478364       4.73268877
18
Lattice="4.812076842110103 0.0 0.0 0.0 10.9383233132088 -6.874614552842156e-16 0.0 5.705677141383692e-16 9.468022694780304" Properties=species:S:1:pos:R:3 unique_starting_index=36 config_type=initial n_minim_iter=17 stress="0.0005204996615946213 4.832838258128501e-17 5.976512514892186e-16 4.832838258128501e-17 -0.0005083092878338855 1.7185818514513954e-16 5.976512514892186e-16 1.7185818514513954e-16 0.001124400090041416" pbc="T T T"
Si       4.47132265      10.49428703       8.24636394
Si       0.34075419      10.49428703       1.22165875
Si       2.74679261      10.49428703       3.51235259
Si       2.06528423      10.49428703       5.95567010
Si       0.18148972       1.95033331       1.61145824
Si       4.63058712       1.95033331       7.85656446
Si       2.22454870       1.95033331       6.34546959
Si       2.58752815       1.95033331       3.12255311
Si       0.97417988       8.33235175       2.24161285
Si       3.83789696       8.33235175       7.22640984
Si       1.43185854       8.33235175       6.97562420
Si       3.38021830       8.33235175       2.49239849
Si       2.83886036       0.63287158       1.08447858
Si       1.97321648       0.63287158       8.38354412
Si      -0.43282194       0.63287158       5.81848992
Si       5.24489878       0.63287158       3.64953277
Si      -0.00000000       8.26187122       0.00000000
Si       2.40603842       8.26187122       4.73401135
18
Lattice="4.850385110408538 0.0 0.0 0.0 10.885723904119628 -6.746245009625323e-16 0.0 5.664383604446568e-16 9.274943264576482" Properties=species:S:1:pos:R:3 unique_starting_index=36 config_type=initial n_minim_iter=18 stress="-0.0010158138944734326 8.574493707828948e-17 7.00426253753794e-16 8.574493707828948e-17 -0.002229570653929786 1.3418591716078272e-16 7.00426253753794e-16 1.3418591716078272e-16 -0.0017882995860670507" pbc="T T T"
Si       4.45150268      10.42780007       8.06295230
Si       0.39888243      10.42780007       1.21199097
Si       2.82407499      10.42780007       3.42548066
Si       2.02631012      10.42780007       5.84946260
Si       0.19117930       1.94441819       1.56445233
Si       4.65920581       1.94441819       7.71049093
Si       2.23401325       1.94441819       6.20192397
Si       2.61637186       1.94441819       3.07301930
Si       1.08845479       8.30603717       2.25916106
Si       3.76193032       8.30603717       7.01578221
Si       1.33673777       8.30603717       6.89663269
Si       3.51364734       8.30603717       2.37831058
Si       2.92231274       0.63762289       1.04407598
Si       1.92807237       0.63762289       8.23086729
Si      -0.49712019       0.63762289       5.68154761
Si       5.34750530       0.63762289       3.59339566
Si      -0.00000000       8.20416465       0.00000000
Si       2.42519256       8.20416465       4.63747163
18
Lattice="4.857844544851777 0.0 0.0 0.0 10.919672777354947 -6.726474874416303e-16 0.0 5.659252752717803e-16 9.213308140005516" Properties=species:S:1:pos:R:3 unique_starting_index=36 config_type=initial n_minim_iter=19 stress="-0.0008132468479666469 4.749168029832146e-17 6.228580014013041e-16 4.749168029832146e-17 -0.0010051027289472451 1.296580557078327e-16 6.228580014013041e-16 1.296580557078327e-16 -0.0016178638149992636" pbc="T T T"
Si       4.42481447      10.45519463       7.99699281
Si       0.43303008      10.45519463       1.21631533
Si       2.86195235      10.45519463       3.39033874
Si       1.99589220      10.45519463       5.82296940
Si       0.17399033       1.95233762       1.54126899
Si       4.68385421       1.95233762       7.67203915
Si       2.25493194       1.95233762       6.14792306
Si       2.60291261       1.95233762       3.06538508
Si       1.12213320       8.32534713       2.26727163
Si       3.73571135       8.32534713       6.94603651
Si       1.30678907       8.32534713       6.87392570
Si       3.55105547       8.32534713       2.33938244
Si       2.94924300       0.64077044       1.03086160
Si       1.90860155       0.64077044       8.18244654
Si      -0.52032073       0.64077044       5.63751567
Si       5.37816527       0.64077044       3.57579247
Si      -0.00000000       8.24716159       0.00000000
Si       2.42892227       8.24716159       4.60665407
18
Lattice="4.850274515158811 0.0 0.0 0.0 10.951103180393085 -6.731255130068405e-16 0.0 5.691419808343569e-16 9.246034060318516" Properties=species:S:1:pos:R:3 unique_starting_index=36 config_type=initial n_minim_iter=20 stress="-5.427477802630443e-06 4.528335561774792e-17 6.447897712859733e-16 4.528335561774792e-17 0.00042659107926831493 8.159142581211606e-17 6.447897712859733e-16 8.159142581211606e-17 0.0007928764747436653" pbc="T T T"
Si       4.41770031      10.48919585       8.02349005
Si       0.43257421      10.48919585       1.22254401
Si       2.85771146      10.48919585       3.40047302
Si       1.99256305      10.48919585       5.84556104
Si       0.16297439       1.95719393       1.54483337
Si       4.68730012       1.95719393       7.70120069
Si       2.26216286       1.95719393       6.16785040
Si       2.58811165       1.95719393       3.07818366
Si       1.10314608       8.34067790       2.26750236
Si       3.74712844       8.34067790       6.97853170
Si       1.32199118       8.34067790       6.89051939
Si       3.52828334       8.34067790       2.35551467
Si       2.93759639       0.64065472       1.03467874
Si       1.91267812       0.64065472       8.21135532
Si      -0.51245913       0.64065472       5.65769577
Si       5.36273365       0.64065472       3.58833829
Si      -0.00000000       8.28579523       0.00000000
Si       2.42513726       8.28579523       4.62301703
18
Lattice="4.866791998598485 0.0 0.0 0.0 10.942710748608853 -6.676791042488641e-16 0.0 5.700892158241728e-16 9.195579607445469" Properties=species:S:1:pos:R:3 unique_starting_index=36 config_type=initial n_minim_iter=21 stress="0.0009404425200853401 -4.272703599472154e-17 5.577681220136672e-16 -4.272703599472154e-17 0.00010797929739370754 3.1077882494698667e-17 5.577681220136672e-16 3.1077882494698667e-17 -0.0007292843564299457" pbc="T T T"
Si       4.41806442      10.48117701       7.98276684
Si       0.44872758      10.48117701       1.21281277
Si       2.88212357      10.48117701       3.38497703
Si       1.98466842      10.48117701       5.81060258
Si       0.17392221       1.95327777       1.52944771
Si       4.69286979       1.95327777       7.66613189
Si       2.25947379       1.95327777       6.12723752
Si       2.60731821       1.95327777       3.06834209
Si       1.13052741       8.33537590       2.27033356
Si       3.73626459       8.33537590       6.92524605
Si       1.30286859       8.33537590       6.86812336
Si       3.56392341       8.33537590       2.32745625
Si       2.96303000       0.64398664       1.02546976
Si       1.90376200       0.64398664       8.17010985
Si      -0.52963400       0.64398664       5.62325956
Si       5.39642600       0.64398664       3.57232005
Si      -0.00000000       8.27441306       0.00000000
Si       2.43339600       8.27441306       4.59778980
