16
Lattice="6.788018272891383 0.0 0.0 0.0 8.317965918244232 2.8758828576669916e-31 0.0 -2.568978437871338e-31 7.430300936615007" Properties=species:S:1:pos:R:3 unique_starting_index=162 config_type=initial n_minim_iter=1 energy=-2602.001062079348 free_energy=-2602.001062079348 pbc="T T T"
Si       2.23549445       2.97440499      -0.14321971
Si       4.55252383       5.34356093      -0.14321971
Si       2.23549445       5.34356093      -0.14321971
Si       4.55252383       2.97440499      -0.14321971
Si       1.18305637       5.44188029       2.00726038
Si       5.60496190       2.87608563       2.00726038
Si       1.18305637       2.87608563       2.00726038
Si       5.60496190       5.44188029       2.00726038
Si       1.20106900       1.13848585       3.67035798
Si       5.58694927       7.17948007       3.67035798
Si       1.20106900       7.17948007       3.67035798
Si       5.58694927       1.13848585       3.67035798
Si       2.22974693       5.44111263       4.86942922
Si       4.55827135       2.87685329       4.86942922
Si       2.22974693       2.87685329       4.86942922
Si       4.55827135       5.44111263       4.86942922
16
Lattice="6.905777213557632 0.0 0.0 0.0 8.24464784972151 2.8451419599689298e-31 0.0 -2.5405014599939057e-31 7.333980408156332" Properties=species:S:1:pos:R:3 unique_starting_index=162 config_type=initial n_minim_iter=2 stress="0.003182891053750073 -3.403265098607666e-17 5.3176017165744786e-18 -3.403265098607666e-17 -0.0013971135884367164 -4.99854561358001e-17 5.3176017165744786e-18 -4.99854561358001e-17 -0.0033177822918281988" pbc="T T T"
Si       2.27195719       2.94676894      -0.14012397
Si       4.63382003       5.29787891      -0.14012397
Si       2.27195719       5.29787891      -0.14012397
Si       4.63382003       2.94676894      -0.14012397
Si       1.20547251       5.39450567       1.97872139
Si       5.70030471       2.85014218       1.97872139
Si       1.20547251       2.85014218       1.97872139
Si       5.70030471       5.39450567       1.97872139
Si       1.22230458       1.13436851       3.62364286
Si       5.68347263       7.11027934       3.62364286
Si       1.22230458       7.11027934       3.62364286
Si       5.68347263       1.13436851       3.62364286
Si       2.26482072       5.39352893       4.80672062
Si       4.64095649       2.85111892       4.80672062
Si       2.26482072       2.85111892       4.80672062
Si       4.64095649       5.39352893       4.80672062
16
Lattice="6.886106971542417 0.0 0.0 0.0 8.225070337018904 2.848434342792234e-31 0.0 -2.5738839203797715e-31 7.456420723775207" Properties=species:S:1:pos:R:3 unique_starting_index=162 config_type=initial n_minim_iter=3 stress="0.006789377499557135 -1.5773122997241694e-18 5.836055508979427e-17 -1.5773122997241694e-18 0.01074418962916225 -1.4563850234119832e-16 5.836055508979427e-17 -1.4563850234119832e-16 0.0011893610367588164" pbc="T T T"
Si       2.25553072       2.92071879      -0.12710620
Si       4.63057625       5.30435155      -0.12710620
Si       2.25553072       5.30435155      -0.12710620
Si       4.63057625       2.92071879      -0.12710620
Si       1.20940035       5.38647059       1.98308859
Si       5.67670662       2.83859975       1.98308859
Si       1.20940035       2.83859975       1.98308859
Si       5.67670662       5.38647059       1.98308859
Si       1.21312278       1.19370354       3.69510355
Si       5.67298419       7.03136679       3.69510355
Si       1.21312278       7.03136679       3.69510355
Si       5.67298419       1.19370354       3.69510355
Si       2.23313012       5.38326276       4.88931458
Si       4.65297685       2.84180758       4.88931458
Si       2.23313012       2.84180758       4.88931458
Si       4.65297685       5.38326276       4.88931458
16
Lattice="6.83083399611775 0.0 0.0 0.0 8.116663215750101 2.8183810421124334e-31 0.0 -2.571612325512809e-31 7.4692779710864725" Properties=species:S:1:pos:R:3 unique_starting_index=162 config_type=initial n_minim_iter=4 stress="-0.0035212600765838144 -9.11505445114113e-18 4.128583486693335e-17 -9.11505445114113e-18 -0.0002707414690132964 -6.112448279000523e-17 4.128583486693335e-17 -6.112448279000523e-17 -0.005772214671902827" pbc="T T T"
Si       2.23562973       2.87796705      -0.12446181
Si       4.59520427       5.23869616      -0.12446181
Si       2.23562973       5.23869616      -0.12446181
Si       4.59520427       2.87796705      -0.12446181
Si       1.20112923       5.31643541       1.97921453
Si       5.62970477       2.80022780       1.97921453
Si       1.20112923       2.80022780       1.97921453
Si       5.62970477       5.31643541       1.97921453
Si       1.20146851       1.19102702       3.70372220
Si       5.62936549       6.92563620       3.70372220
Si       1.20146851       6.92563620       3.70372220
Si       5.62936549       1.19102702       3.70372220
Si       2.21057182       5.31158243       4.89992817
Si       4.62026218       2.80508079       4.89992817
Si       2.21057182       2.80508079       4.89992817
Si       4.62026218       5.31158243       4.89992817
16
Lattice="6.881299672569393 0.0 0.0 0.0 7.873793297128273 2.795712122228011e-31 0.0 -2.6097018332292954e-31 7.736213683930861" Properties=species:S:1:pos:R:3 unique_starting_index=162 config_type=initial n_minim_iter=5 stress="0.0026525849842110247 -3.1783998977723295e-18 6.144906469026503e-17 -3.1783998977723295e-18 -0.007275428170062956 -2.489746586588325e-17 6.144906469026503e-17 -2.489746586588325e-17 0.008693672459148913" pbc="T T T"
Si       2.24849017       2.77846762      -0.12570255
Si       4.63280950       5.09532567      -0.12570255
Si       2.24849017       5.09532567      -0.12570255
Si       4.63280950       2.77846762      -0.12570255
Si       1.21492938       5.15986983       2.02574020
Si       5.66637029       2.71392347       2.02574020
Si       1.21492938       2.71392347       2.02574020
Si       5.66637029       5.15986983       2.02574020
Si       1.20307269       1.18087546       3.83998209
Si       5.67822698       6.69291784       3.83998209
Si       1.20307269       6.69291784       3.83998209
Si       5.67822698       1.18087546       3.83998209
Si       2.22086924       5.14361412       5.09214388
Si       4.66043043       2.73017918       5.09214388
Si       2.22086924       2.73017918       5.09214388
Si       4.66043043       5.14361412       5.09214388
16
Lattice="6.85309933262895 0.0 0.0 0.0 7.704804701943428 2.9262492760634596e-31 0.0 -2.5035641625268103e-31 7.907284091404885" Properties=species:S:1:pos:R:3 unique_starting_index=162 config_type=initial n_minim_iter=6 stress="-0.004080819011528543 1.4359125313446575e-17 2.233641715425023e-17 1.4359125313446575e-17 -0.00360247912145328 -5.105466778114338e-17 2.233641715425023e-17 -5.105466778114338e-17 0.00749701073181431" pbc="T T T"
Si       2.23124148       2.66931307      -0.12902569
Si       4.62185785       5.03549163      -0.12902569
Si       2.23124148       5.03549163      -0.12902569
Si       4.62185785       2.66931307      -0.12902569
Si       1.22375385       5.06051060       1.99039065
Si       5.62934548       2.64429411       1.99039065
Si       1.22375385       2.64429411       1.99039065
Si       5.62934548       5.06051060       1.99039065
Si       1.17079056       1.21833255       3.92870744
Si       5.68230877       6.48647215       3.92870744
Si       1.17079056       6.48647215       3.92870744
Si       5.68230877       1.21833255       3.92870744
Si       2.21188390       5.00138120       5.28162219
Si       4.64121543       2.70342350       5.28162219
Si       2.21188390       2.70342350       5.28162219
Si       4.64121543       5.00138120       5.28162219
16
Lattice="6.8958189116438335 0.0 0.0 0.0 7.749961967604825 3.025844633739655e-31 0.0 -2.3881652667567678e-31 7.802170515768613" Properties=species:S:1:pos:R:3 unique_starting_index=162 config_type=initial n_minim_iter=7 stress="-0.0029772695427218248 -3.727669571130824e-18 2.4496114324573984e-17 -3.727669571130824e-18 0.004502189532474869 -7.348834297372196e-17 2.4496114324573984e-17 -7.348834297372196e-17 -0.002356887235190653" pbc="T T T"
Si       2.25123610       2.67274223      -0.13964858
Si       4.64458281       5.07721974      -0.13964858
Si       2.25123610       5.07721974      -0.13964858
Si       4.64458281       2.67274223      -0.13964858
Si       1.22818412       5.09699671       1.95019679
Si       5.66763479       2.65296526       1.95019679
Si       1.22818412       2.65296526       1.95019679
Si       5.66763479       5.09699671       1.95019679
Si       1.17512725       1.22383217       3.87005699
Si       5.72069166       6.52612980       3.87005699
Si       1.17512725       6.52612980       3.87005699
Si       5.72069166       1.22383217       3.87005699
Si       2.23806211       5.03114131       5.24391047
Si       4.65775680       2.71882066       5.24391047
Si       2.23806211       2.71882066       5.24391047
Si       4.65775680       5.03114131       5.24391047
16
Lattice="7.03352172155852 0.0 0.0 0.0 7.528654233373286 3.168570736474743e-31 0.0 -2.2373003077942134e-31 7.896432423611346" Properties=species:S:1:pos:R:3 unique_starting_index=162 config_type=initial n_minim_iter=8 stress="0.005279432663863818 -3.6110045045555935e-17 -4.3013436010147506e-17 -3.6110045045555935e-17 -0.0004169648128731081 -9.39923231332853e-17 -4.3013436010147506e-17 -9.39923231332853e-17 -0.003711776315450069" pbc="T T T"
Si       2.31082374       2.55756330      -0.16414833
Si       4.72269798       4.97109094      -0.16414833
Si       2.31082374       4.97109094      -0.16414833
Si       4.72269798       2.55756330      -0.16414833
Si       1.24303330       4.97086268       1.92348767
Si       5.79048842       2.55779156       1.92348767
Si       1.24303330       2.55779156       1.92348767
Si       5.79048842       4.97086268       1.92348767
Si       1.19138495       1.21115944       3.90766909
Si       5.84213678       6.31749479       3.90766909
Si       1.19138495       6.31749479       3.90766909
Si       5.84213678       1.21115944       3.90766909
Si       2.30000552       4.89803550       5.38949175
Si       4.73351620       2.63061873       5.38949175
Si       2.30000552       2.63061873       5.38949175
Si       4.73351620       4.89803550       5.38949175
16
Lattice="7.068730435026797 0.0 0.0 0.0 7.475237061475743 3.393348972689962e-31 0.0 -2.0326023082627784e-31 7.919178849435623" Properties=species:S:1:pos:R:3 unique_starting_index=162 config_type=initial n_minim_iter=9 stress="0.004819913271602232 -1.5388336759261634e-17 1.8041498269479158e-17 -1.5388336759261634e-17 0.008052049030840438 -1.1355531263731e-16 1.8041498269479158e-17 -1.1355531263731e-16 -0.0033708988843111705" pbc="T T T"
Si       2.34785940       2.52594566      -0.17801997
Si       4.72087103       4.94929140      -0.17801997
Si       2.34785940       4.94929140      -0.17801997
Si       4.72087103       2.52594566      -0.17801997
Si       1.21900753       4.95695154       1.92959802
Si       5.84972290       2.51828552       1.92959802
Si       1.21900753       2.51828552       1.92959802
Si       5.84972290       4.95695154       1.92959802
Si       1.21342865       1.18750260       3.90793564
Si       5.85530179       6.28773446       3.90793564
Si       1.21342865       6.28773446       3.90793564
Si       5.85530179       1.18750260       3.90793564
Si       2.32356951       4.92640784       5.42883580
Si       4.74516092       2.54882922       5.42883580
Si       2.32356951       2.54882922       5.42883580
Si       4.74516092       4.92640784       5.42883580
16
Lattice="7.068811151313273 0.0 0.0 0.0 7.3176220583407865 3.574931665593285e-31 0.0 -1.8879661638250794e-31 8.044934685837758" Properties=species:S:1:pos:R:3 unique_starting_index=162 config_type=initial n_minim_iter=10 stress="0.0020854210027870554 -1.0671644369930694e-18 3.9485084168743564e-17 -1.0671644369930694e-18 0.003298696834492369 -4.375374191671584e-17 3.9485084168743564e-17 -4.375374191671584e-17 0.004643961982931283" pbc="T T T"
Si       2.35453694       2.45165790      -0.17368299
Si       4.71427421       4.86596416      -0.17368299
Si       2.35453694       4.86596416      -0.17368299
Si       4.71427421       2.45165790      -0.17368299
Si       1.20688941       4.86908315       1.93583398
Si       5.86192174       2.44853891       1.93583398
Si       1.20688941       2.44853891       1.93583398
Si       5.86192174       4.86908315       1.93583398
Si       1.21356211       1.18045933       3.96819941
Si       5.85524904       6.13716273       3.96819941
Si       1.21356211       6.13716273       3.96819941
Si       5.85524904       1.18045933       3.96819941
Si       2.32305748       4.85413953       5.53408107
Si       4.74575368       2.46348253       5.53408107
Si       2.32305748       2.46348253       5.53408107
Si       4.74575368       4.85413953       5.53408107
16
Lattice="7.088068721339939 0.0 0.0 0.0 7.173551129905477 3.781480361439474e-31 0.0 -1.6911912390329348e-31 8.08413095605659" Properties=species:S:1:pos:R:3 unique_starting_index=162 config_type=initial n_minim_iter=11 stress="-0.001346757729615267 -1.6745821652876797e-17 3.6732770077278135e-17 -1.6745821652876797e-17 -0.0023182412134457853 -7.940760590235127e-17 3.6732770077278135e-17 -7.940760590235127e-17 0.002409932320330435" pbc="T T T"
Si       2.36581891       2.37972850      -0.16173518
Si       4.72224981       4.79382263      -0.16173518
Si       2.36581891       4.79382263      -0.16173518
Si       4.72224981       2.37972850      -0.16173518
Si       1.19809254       4.79368489       1.91771509
Si       5.88997618       2.37986624       1.91771509
Si       1.19809254       2.37986624       1.91771509
Si       5.88997618       4.79368489       1.91771509
Si       1.21263237       1.17788095       3.98461900
Si       5.87543635       5.99567018       3.98461900
Si       1.21263237       5.99567018       3.98461900
Si       5.87543635       1.17788095       3.98461900
Si       2.33169173       4.79003760       5.57871476
Si       4.75637699       2.38351353       5.57871476
Si       2.33169173       2.38351353       5.57871476
Si       4.75637699       4.79003760       5.57871476
16
Lattice="7.148397429039564 0.0 0.0 0.0 7.058302100401944 4.123550948963015e-31 0.0 -1.3656773180732772e-31 8.084526401234259" Properties=species:S:1:pos:R:3 unique_starting_index=162 config_type=initial n_minim_iter=12 stress="-0.0016355917425281091 2.014087960558441e-17 6.858786027847664e-17 2.014087960558441e-17 0.0006684140999273038 -8.655134749426814e-17 6.858786027847664e-17 -8.655134749426814e-17 -0.0010015237805762228" pbc="T T T"
Si       2.38710815       2.31314804      -0.13032772
Si       4.76128928       4.74515406      -0.13032772
Si       2.38710815       4.74515406      -0.13032772
Si       4.76128928       2.31314804      -0.13032772
Si       1.19499297       4.74885555       1.88901320
Si       5.95340446       2.30944655       1.88901320
Si       1.19499297       2.30944655       1.88901320
Si       5.95340446       4.74885555       1.88901320
Si       1.20621313       1.18263473       3.97731673
Si       5.94218430       5.87566737       3.97731673
Si       1.20621313       5.87566737       3.97731673
Si       5.94218430       1.18263473       3.97731673
Si       2.36315709       4.74559419       5.58386515
Si       4.78524034       2.31270791       5.58386515
Si       2.36315709       2.31270791       5.58386515
Si       4.78524034       4.74559419       5.58386515
16
Lattice="7.208312928343159 0.0 0.0 0.0 6.9786065186916915 4.322509978522938e-31 0.0 -1.186535564722272e-31 8.10523584114249" Properties=species:S:1:pos:R:3 unique_starting_index=162 config_type=initial n_minim_iter=13 stress="0.00045993520558973346 -3.812152498155713e-18 -1.5793203206645094e-17 -3.812152498155713e-18 -0.00029203245251274257 -2.5051287845023254e-17 -1.5793203206645094e-17 -2.5051287845023254e-17 0.0003117995842632682" pbc="T T T"
Si       2.41428213       2.27143001      -0.12793105
Si       4.79403080       4.70717651      -0.12793105
Si       2.41428213       4.70717651      -0.12793105
Si       4.79403080       2.27143001      -0.12793105
Si       1.19549184       4.71185710       1.88067384
Si       6.01282109       2.26674942       1.88067384
Si       1.19549184       2.26674942       1.88067384
Si       6.01282109       4.71185710       1.88067384
Si       1.20649140       1.17330022       3.98006239
Si       6.00182152       5.80530630       3.98006239
Si       1.20649140       5.80530630       3.98006239
Si       6.00182152       1.17330022       3.98006239
Si       2.39855991       4.70325359       5.61605933
Si       4.80975302       2.27535293       5.61605933
Si       2.39855991       2.27535293       5.61605933
Si       4.80975302       4.70325359       5.61605933
16
Lattice="7.241479699073087 0.0 0.0 0.0 6.951349638883395 4.490610183459097e-31 0.0 -1.0237195212510103e-31 8.087321561858413" Properties=species:S:1:pos:R:3 unique_starting_index=162 config_type=initial n_minim_iter=14 stress="-0.00019002997408417493 -2.0180911937661035e-17 2.6726072566091642e-17 -2.0180911937661035e-17 -0.0015280437405249254 -9.654111926935144e-17 2.6726072566091642e-17 -9.654111926935144e-17 -0.001021067388968428" pbc="T T T"
Si       2.43094036       2.25622614      -0.12321120
Si       4.81053934       4.69512350      -0.12321120
Si       2.43094036       4.69512350      -0.12321120
Si       4.81053934       2.25622614      -0.12321120
Si       1.19386961       4.70538620       1.87938356
Si       6.04761009       2.24596344       1.87938356
Si       1.19386961       2.24596344       1.87938356
Si       6.04761009       4.70538620       1.87938356
Si       1.20373328       1.16632606       3.96803939
Si       6.03774642       5.78502358       3.96803939
Si       1.20373328       5.78502358       3.96803939
Si       6.03774642       1.16632606       3.96803939
Si       2.42238260       4.68763551       5.59956936
Si       4.81909710       2.26371413       5.59956936
Si       2.42238260       2.26371413       5.59956936
Si       4.81909710       4.68763551       5.59956936
16
Lattice="7.2652001598088845 0.0 0.0 0.0 6.948416742877879 4.642733881908119e-31 0.0 -8.857295672019338e-32 8.083954836646758" Properties=species:S:1:pos:R:3 unique_starting_index=162 config_type=initial n_minim_iter=15 stress="0.00017067563225776864 8.16157853656688e-18 4.026378744706328e-17 8.16157853656688e-18 -0.00010784779214164292 -2.0675998959302763e-17 4.026378744706328e-17 -2.0675998959302763e-17 0.00015770059514170934" pbc="T T T"
Si       2.44320121       2.25014255      -0.12147253
Si       4.82199895       4.69827419      -0.12147253
Si       2.44320121       4.69827419      -0.12147253
Si       4.82199895       2.25014255      -0.12147253
Si       1.19363786       4.71191788       1.87970470
Si       6.07156230       2.23649886       1.87970470
Si       1.19363786       2.23649886       1.87970470
Si       6.07156230       4.71191788       1.87970470
Si       1.20013842       1.16766928       3.96910477
Si       6.06506174       5.78074747       3.96910477
Si       1.20013842       5.78074747       3.96910477
Si       6.06506174       1.16766928       3.96910477
Si       2.43815530       4.68092967       5.59173012
Si       4.82704486       2.26748707       5.59173012
Si       2.43815530       2.26748707       5.59173012
Si       4.82704486       4.68092967       5.59173012
16
Lattice="7.284774184011535 0.0 0.0 0.0 6.955954173697999 4.765296971852269e-31 0.0 -7.684362184275445e-32 8.06820023688193" Properties=species:S:1:pos:R:3 unique_starting_index=162 config_type=initial n_minim_iter=16 stress="0.00022388747098634577 -2.3897002437261262e-17 4.8880232258034396e-17 -2.3897002437261262e-17 0.0007814157516385016 1.900897921145782e-17 4.8880232258034396e-17 1.900897921145782e-17 0.0005381292983299581" pbc="T T T"
Si       2.45511854       2.24912240      -0.12283543
Si       4.82965565       4.70683177      -0.12283543
Si       2.45511854       4.70683177      -0.12283543
Si       4.82965565       2.24912240      -0.12283543
Si       1.19261181       4.72361822       1.87897925
Si       6.09216237       2.23233595       1.87897925
Si       1.19261181       2.23233595       1.87897925
Si       6.09216237       4.72361822       1.87897925
Si       1.19782705       1.17068294       3.97025348
Si       6.08694714       5.78527124       3.97025348
Si       1.19782705       5.78527124       3.97025348
Si       6.08694714       1.17068294       3.97025348
Si       2.44932044       4.67667049       5.57061034
Si       4.83545375       2.27928369       5.57061034
Si       2.44932044       2.27928369       5.57061034
Si       4.83545375       4.67667049       5.57061034
16
Lattice="7.3035806548483935 0.0 0.0 0.0 6.947383107702579 4.868446917453633e-31 0.0 -6.693506101377696e-32 8.0568964853966" Properties=species:S:1:pos:R:3 unique_starting_index=162 config_type=initial n_minim_iter=17 stress="0.00018836126828454365 -2.7157223591907428e-17 -9.776600493086674e-18 -2.7157223591907428e-17 0.0010408536008429997 -1.2492322852277417e-17 -9.776600493086674e-18 -1.2492322852277417e-17 0.0007623663902074189" pbc="T T T"
Si       2.46692875       2.24106110      -0.12520278
Si       4.83665191       4.70632201      -0.12520278
Si       2.46692875       4.70632201      -0.12520278
Si       4.83665191       2.24106110      -0.12520278
Si       1.19011441       4.72437392       1.87405007
Si       6.11346624       2.22300919       1.87405007
Si       1.19011441       2.22300919       1.87405007
Si       6.11346624       4.72437392       1.87405007
Si       1.19791065       1.17256051       3.97524239
Si       6.10567000       5.77482260       3.97524239
Si       1.19791065       5.77482260       3.97524239
Si       6.10567000       1.17256051       3.97524239
Si       2.45751336       4.66650681       5.55709057
Si       4.84606730       2.28087630       5.55709057
Si       2.45751336       2.28087630       5.55709057
Si       4.84606730       4.66650681       5.55709057
16
Lattice="7.325483748768467 0.0 0.0 0.0 6.917598347430219 4.95743967754443e-31 0.0 -5.834754360326013e-32 8.049346706130535" Properties=species:S:1:pos:R:3 unique_starting_index=162 config_type=initial n_minim_iter=18 stress="0.00010885008953993423 -2.7218108713421544e-18 -9.14528452770964e-17 -2.7218108713421544e-18 0.0006364554356509483 -2.2318849145005667e-17 -9.14528452770964e-17 -2.2318849145005667e-17 0.00048657832406668504" pbc="T T T"
Si       2.47947350       2.22365319      -0.12647520
Si       4.84601025       4.69394515      -0.12647520
Si       2.47947350       4.69394515      -0.12647520
Si       4.84601025       2.22365319      -0.12647520
Si       1.18671746       4.71210062       1.86527855
Si       6.13876629       2.20549773       1.86527855
Si       1.18671746       2.20549773       1.86527855
Si       6.13876629       4.71210062       1.86527855
Si       1.19943900       1.17149780       3.98019411
Si       6.12604475       5.74610055       3.98019411
Si       1.19943900       5.74610055       3.98019411
Si       6.12604475       1.17149780       3.98019411
Si       2.46657556       4.64928315       5.55161168
Si       4.85890819       2.26831520       5.55161168
Si       2.46657556       2.26831520       5.55161168
Si       4.85890819       4.64928315       5.55161168
16
Lattice="7.337049322754264 0.0 0.0 0.0 6.892103636805208 5.039880150619228e-31 0.0 -5.080254425764916e-32 8.048985939674685" Properties=species:S:1:pos:R:3 unique_starting_index=162 config_type=initial n_minim_iter=19 stress="7.133870323374419e-05 -6.000929214456141e-18 -4.909851175464115e-18 -6.000929214456141e-18 0.00019466244131833237 -3.9824348423208933e-17 -4.909851175464115e-18 -3.9824348423208933e-17 0.00017570210689881485" pbc="T T T"
Si       2.48520981       2.21013984      -0.12615074
Si       4.85183952       4.68196380      -0.12615074
Si       2.48520981       4.68196380      -0.12615074
Si       4.85183952       2.21013984      -0.12615074
Si       1.18512637       4.69948654       1.85947992
Si       6.15192295       2.19261710       1.85947992
Si       1.18512637       2.19261710       1.85947992
Si       6.15192295       4.69948654       1.85947992
Si       1.20013680       1.16933720       3.98248379
Si       6.13691252       5.72276644       3.98248379
Si       1.20013680       5.72276644       3.98248379
Si       6.13691252       1.16933720       3.98248379
Si       2.47167922       4.63709828       5.55429102
Si       4.86537011       2.25500536       5.55429102
Si       2.47167922       2.25500536       5.55429102
Si       4.86537011       4.63709828       5.55429102
16
Lattice="7.340554377005613 0.0 0.0 0.0 6.87876925666848 5.114573229377526e-31 0.0 -4.41505009782434e-32 8.050602740931527" Properties=species:S:1:pos:R:3 unique_starting_index=162 config_type=initial n_minim_iter=20 stress="1.855626949698328e-05 1.9664129592540367e-17 -4.642919487127587e-17 1.9664129592540367e-17 -4.027918360224998e-05 -2.458016199067546e-17 -4.642919487127587e-17 -2.458016199067546e-17 -1.9060059797994004e-05" pbc="T T T"
Si       2.48650092       2.20313349      -0.12569134
Si       4.85405346       4.67563577      -0.12569134
Si       2.48650092       4.67563577      -0.12569134
Si       4.85405346       2.20313349      -0.12569134
Si       1.18487568       4.69252582       1.85722184
Si       6.15567869       2.18624344       1.85722184
Si       1.18487568       2.18624344       1.85722184
Si       6.15567869       4.69252582       1.85722184
Si       1.19995202       1.16786243       3.98336459
Si       6.14060235       5.71090683       3.98336459
Si       1.19995202       5.71090683       3.98336459
Si       6.14060235       1.16786243       3.98336459
Si       2.47346887       4.63121257       5.55747273
Si       4.86708550       2.24755669       5.55747273
Si       2.47346887       2.24755669       5.55747273
Si       4.86708550       4.63121257       5.55747273
16
Lattice="7.3431426236071795 0.0 0.0 0.0 6.860070589753482 5.221580202701479e-31 0.0 -3.4796195619019496e-32 8.055549645574377" Properties=species:S:1:pos:R:3 unique_starting_index=162 config_type=initial n_minim_iter=21 stress="-2.0979530501365063e-05 -2.5170528277491615e-17 -8.754966357388388e-18 -2.5170528277491615e-17 -0.0002030920229034089 -1.0943707946735485e-18 -8.754966357388388e-18 -1.0943707946735485e-18 -0.0001906545544533816" pbc="T T T"
Si       2.48690946       2.19250018      -0.12554030
Si       4.85623316       4.66757041      -0.12554030
Si       2.48690946       4.66757041      -0.12554030
Si       4.85623316       2.19250018      -0.12554030
Si       1.18537004       4.68299992       1.85561725
Si       6.15777258       2.17707067       1.85561725
Si       1.18537004       2.17707067       1.85561725
Si       6.15777258       4.68299992       1.85561725
Si       1.19891259       1.16572204       3.98560605
Si       6.14423004       5.69434855       3.98560605
Si       1.19891259       5.69434855       3.98560605
Si       6.14423004       1.16572204       3.98560605
Si       2.47510777       4.62288474       5.56361142
Si       4.86803485       2.23718585       5.56361142
Si       2.47510777       2.23718585       5.56361142
Si       4.86803485       4.62288474       5.56361142
