8
Lattice="5.640940932490542 -0.0010603708253386966 -0.5010496596178763 1.6587701296701562 5.569707895329009 -1.1157345974943678 0.6640481603355314 0.9511890409033646 5.56694377768991" Properties=species:S:1:pos:R:3 unique_starting_index=84 config_type=initial n_minim_iter=1 energy=-1302.058784589202 free_energy=-1302.058784589202 pbc="T T T"
Si       4.88786426       3.14258648      -0.94167153
Si       3.07589497       3.37725008       4.89183105
Si       4.06997741       0.80627061      -0.54944258
Si       3.89378182       5.71356595       4.49960210
Si       2.08110582       6.00162922       2.96056351
Si       5.88265340       0.51820735       0.98959601
Si       7.00678392       3.69803400       2.81821007
Si       0.95697530       2.82180257       1.13194945
8
Lattice="5.577731044147287 -0.0019586036364429727 -0.524024299645993 1.6438339431057214 5.563705405674409 -1.115790106927676 0.6308134866469812 0.9515297708593703 5.533518220878172" Properties=species:S:1:pos:R:3 unique_starting_index=84 config_type=initial n_minim_iter=2 stress="-0.0070885593890221196 0.0009137556512989895 -0.002590442050734215 0.0009137556512989895 -0.007653962612845802 0.001003862365890514 -0.002590442050734215 0.001003862365890514 -0.008144088427643602" pbc="T T T"
Si       4.83342103       3.13328631      -0.95924056
Si       3.01895744       3.37999026       4.85294438
Si       4.02424943       0.79918002      -0.56232191
Si       3.82812905       5.71409655       4.45602573
Si       2.03922913       5.99168162       2.92298528
Si       5.81314934       0.52159495       0.97071854
Si       6.91162959       3.70142159       2.77115043
Si       0.94074888       2.81185498       1.12255339
8
Lattice="5.453811762400399 -0.022034451323339307 -0.5819490634268971 1.5957679585593787 5.69028499587304 -1.1527725760699372 0.5578591363172472 0.957101423223212 5.558088862636795" Properties=species:S:1:pos:R:3 unique_starting_index=84 config_type=initial n_minim_iter=3 stress="-0.005434569521706806 -0.0013316992344790425 -0.00788930803929519 -0.0013316992344790425 0.004073110903303536 0.0046253423297121215 -0.00788930803929519 0.0046253423297121215 -0.003188304039460897" pbc="T T T"
Si       4.70834689       3.16160506      -1.02896727
Si       2.89909197       3.46374691       4.85233449
Si       3.92693259       0.77059395      -0.59527981
Si       3.68050627       5.85475802       4.41864704
Si       1.92135803       6.09307194       2.83186482
Si       5.68608083       0.53228003       0.99150240
Si       6.70551647       3.79510726       2.70406834
Si       0.90192239       2.83024471       1.11929888
8
Lattice="5.398192215185293 -0.010355866878774062 -0.5452126874043848 1.5799624010603983 5.691643921627551 -1.1946005097804961 0.5899035000876978 0.9049507748514158 5.562343608230281" Properties=species:S:1:pos:R:3 unique_starting_index=84 config_type=initial n_minim_iter=4 stress="-0.00833923346932069 -0.0013730997511589124 0.0029706769574881758 -0.0013730997511589124 -0.004653098220847675 0.0018769755919175997 0.0029706769574881758 0.0018769755919175997 -0.004503709884014925" pbc="T T T"
Si       4.65123177       3.15471114      -1.03334585
Si       2.91682634       3.43152769       4.85587626
Si       3.88161066       0.75750032      -0.57133373
Si       3.68644746       5.82873851       4.39386414
Si       1.91544272       6.04587610       2.75988519
Si       5.65261540       0.54036273       1.06264522
Si       6.65936933       3.79583421       2.71278656
Si       0.90868878       2.79040462       1.10974385
8
Lattice="5.435517704070075 0.024098814824606084 -0.5879134522941625 1.6274850338170372 5.724798953779881 -1.2613053385922133 0.5581973834820203 0.859589441981328 5.5650373300425535" Properties=species:S:1:pos:R:3 unique_starting_index=84 config_type=initial n_minim_iter=5 stress="0.0012822191220457774 -0.0010945586758824963 0.0006523186724387815 -0.0010945586758824963 -0.001192308754836027 -0.0005348068945380879 0.0006523186724387815 -0.0005348068945380879 0.0034314936132655047" pbc="T T T"
Si       4.69419304       3.18791037      -1.10179538
Si       2.92700708       3.42057684       4.81761392
Si       3.90830199       0.76765849      -0.60604664
Si       3.71289814       5.84082872       4.32186518
Si       1.92933712       6.03950381       2.68897596
Si       5.69186300       0.56898340       1.02684258
Si       6.69890268       3.83372696       2.62412809
Si       0.92229744       2.77476025       1.09169045
8
Lattice="5.473372827449547 0.1481662831314878 -0.6554251747170261 1.7653201011977997 5.920712506675536 -1.364740071343987 0.5067499918192265 0.7984457734237231 5.450353805971506" Properties=species:S:1:pos:R:3 unique_starting_index=84 config_type=initial n_minim_iter=6 stress="0.014016865620605973 0.0026894912290910218 -0.0003321860400184366 0.0026894912290910218 0.0016064362407236194 -0.008117514501656686 -0.0003321860400184366 -0.008117514501656686 0.0008978020337785291" pbc="T T T"
Si       4.76316277       3.35200588      -1.21309057
Si       2.98228015       3.51531868       4.64327913
Si       3.92555397       0.80851508      -0.65205751
Si       3.81988895       6.05880948       4.08224607
Si       1.99095179       6.16224961       2.51125485
Si       5.75449113       0.70507495       0.91893371
Si       6.77116738       4.08726578       2.37907937
Si       0.97427554       2.78005878       1.05110919
8
Lattice="5.354704742491396 0.19755155855399986 -0.7169272968009113 1.7922218822047393 6.0908255339329145 -1.3552950084275182 0.441025342378175 0.8610747597530596 5.457119944363711" Properties=species:S:1:pos:R:3 unique_starting_index=84 config_type=initial n_minim_iter=7 stress="0.011767243333049716 -0.0027246438005875265 -0.0034532356619352803 -0.0027246438005875265 -0.006300766849133612 -0.0011019051899807798 -0.0034532356619352803 -0.0011019051899807798 0.00877862162737071" pbc="T T T"
Si       4.65996024       3.44950382      -1.25929154
Si       2.92799173       3.69994803       4.64418918
Si       3.80988423       0.78615475      -0.67501302
Si       3.77806773       6.36329710       4.05991066
Si       1.93676661       6.33844711       2.52505483
Si       5.65118536       0.81100474       0.85984281
Si       6.61830515       4.35074392       2.29104567
Si       0.96964681       2.79870794       1.09385197
8
Lattice="5.186169288026828 0.28705701137134365 -0.7258382421819536 1.8368977077905617 6.397326128860561 -1.3098129112341605 0.4234677629080568 0.9603337701403158 5.411693837351287" Properties=species:S:1:pos:R:3 unique_starting_index=84 config_type=initial n_minim_iter=8 stress="-0.003550126019334054 -0.005711654042040281 -0.002439037348813085 -0.005711654042040281 -0.0005377980876830735 0.004149536621046571 -0.002439037348813085 0.004149536621046571 0.005839004302144345" pbc="T T T"
Si       4.54024259       3.66561291      -1.25090934
Si       2.90629216       3.97910400       4.62695202
Si       3.65202047       0.80705720      -0.65872453
Si       3.79451429       6.83765971       4.03476721
Si       1.93985592       6.67376292       2.55570620
Si       5.50667884       0.97095399       0.82033648
Si       6.46055643       4.74638893       2.24654985
Si       0.98597833       2.89832798       1.12949283
8
Lattice="5.15235964158566 0.3002407187376906 -0.6753722700527486 1.8387811168903947 6.417977001303922 -1.2108966368610534 0.4716197715790859 1.0488109622970518 5.4126889963675255" Properties=species:S:1:pos:R:3 unique_starting_index=84 config_type=initial n_minim_iter=9 stress="-0.0069931923207395994 -0.001956925442908611 0.0001890792924480557 -0.001956925442908611 0.00040354985256790317 0.006582402296761475 0.0001890792924480557 0.006582402296761475 0.001689671921874213" pbc="T T T"
Si       4.53118240       3.72328732      -1.16357706
Si       2.93157813       4.04374136       4.68999715
Si       3.61447551       0.83649705      -0.61608214
Si       3.84828502       6.93053164       4.14250223
Si       1.98609719       6.76490027       2.68425763
Si       5.47666334       1.00212842       0.84216246
Si       6.46050211       4.80538193       2.36396097
Si       1.00225842       2.96164675       1.16245912
8
Lattice="5.046138101436879 0.4423103038926331 -0.6501356661484319 1.9480278266401614 6.706893776722849 -1.1529856949158066 0.4979113400149387 1.138489783701236 5.299176340804577" Properties=species:S:1:pos:R:3 unique_starting_index=84 config_type=initial n_minim_iter=10 stress="-0.0155035544086128 0.006223142218462576 0.006518456599829789 0.006223142218462576 0.0018575718705753086 0.006859493283286739 0.006518456599829789 0.006859493283286739 -0.008850351530348525" pbc="T T T"
Si       4.51659944       4.07162941      -1.12768441
Si       2.97547782       4.21606445       4.62373939
Si       3.45124222       0.90349146      -0.57097839
Si       4.04083504       7.38420241       4.06703337
Si       2.09472883       7.07397304       2.70542131
Si       5.39734844       1.21372083       0.79063367
Si       6.43076393       5.19824019       2.32285296
Si       1.06131334       3.08945368       1.17320202
8
Lattice="5.078599293377526 0.39519134662480415 -0.6679191408619393 1.908196619433719 6.6470659295392736 -1.2245764284509666 0.47303950611804874 1.0522007216587743 5.263359127354781" Properties=species:S:1:pos:R:3 unique_starting_index=84 config_type=initial n_minim_iter=11 stress="-0.00949364883767213 0.004924015378991974 0.003918653175116542 0.004924015378991974 -0.008749839088151438 0.004037068789727604 0.003918653175116542 0.004037068789727604 -0.010124044219355286" pbc="T T T"
Si       4.52277674       4.05314596      -1.17770460
Si       2.93705868       4.04131204       4.54856816
Si       3.44867756       0.88364972      -0.58641658
Si       4.01115785       7.21080828       3.95728014
Si       2.04782980       6.95138895       2.60153861
Si       5.41200562       1.14306905       0.76932495
Si       6.42130809       5.03920696       2.24263758
Si       1.03852733       3.05525104       1.12822598
8
Lattice="5.076716210880717 0.3676514553663525 -0.7130580067650313 1.8778000689001129 6.734438904841385 -1.3551184540042573 0.42081147827291093 0.9422717418993166 5.231891137272264" Properties=species:S:1:pos:R:3 unique_starting_index=84 config_type=initial n_minim_iter=12 stress="-0.0018449865552742381 -0.0012917589767362416 -7.017589487875883e-06 -0.0012917589767362416 -0.0019638893597590623 -9.734599462855962e-05 -7.017589487875883e-06 -9.734599462855962e-05 -0.004366179985839591" pbc="T T T"
Si       4.49402655       4.11098489      -1.27886001
Si       2.88130121       3.93337721       4.44257469
Si       3.42220119       0.86335109      -0.62332471
Si       3.95312657       7.18101101       3.78703939
Si       1.98135267       6.93597593       2.42446122
Si       5.39397508       1.10838617       0.73925346
Si       6.36658281       4.99761058       2.09459212
Si       1.00874495       3.04675153       1.06912256
8
Lattice="5.0850740214442975 0.36552032355912445 -0.7255838387075861 1.8735837270409441 6.73519619625837 -1.4344605841620235 0.4117096830288331 0.8712795240870826 5.261709162535903" Properties=species:S:1:pos:R:3 unique_starting_index=84 config_type=initial n_minim_iter=13 stress="0.006390850154483532 0.00011925873153952885 -0.0028626248096182035 0.00011925873153952885 -0.000572238208766274 -0.0022510500979235543 -0.0028626248096182035 -0.0022510500979235543 0.001744724315705608" pbc="T T T"
Si       4.48715052       4.12127175      -1.31829186
Si       2.88321691       3.85072429       4.41995660
Si       3.43891887       0.88036813      -0.64924025
Si       3.93144856       7.09162791       3.75090499
Si       1.97858182       6.87724729       2.33716738
Si       5.39178561       1.09474875       0.76449736
Si       6.37216956       4.93958137       2.06376005
Si       0.99819787       3.03241467       1.03790469
8
Lattice="5.034862831632287 0.3921733863509251 -0.7127352168459452 1.8813726393442238 6.823741739488768 -1.4483961237544016 0.42317847247934404 0.8704488444349817 5.264021580334205" Properties=species:S:1:pos:R:3 unique_starting_index=84 config_type=initial n_minim_iter=14 stress="0.0035762536302211966 0.001399006269745369 -0.0015731524105376139 0.001399006269745369 0.0014472200290274735 -0.0020839596986031053 -0.0015731524105376139 -0.0020839596986031053 0.005269348934846682" pbc="T T T"
Si       4.44004446       4.21749182      -1.30389367
Si       2.89936948       3.86887215       4.40678391
Si       3.39200447       0.89427368      -0.64669803
Si       3.94740948       7.19209029       3.74958827
Si       1.99403787       6.93792907       2.31829980
Si       5.34537607       1.14843490       0.78459044
Si       6.34095748       5.02504032       2.06747573
Si       0.99845646       3.06132365       1.03541451
8
Lattice="5.0057585350688 0.3700680595945736 -0.6697469305467887 1.8453616350194126 6.860504091683442 -1.4160916630949918 0.45677518498009145 0.8909321696083875 5.245131191377138" Properties=species:S:1:pos:R:3 unique_starting_index=84 config_type=initial n_minim_iter=15 stress="0.00014872728916255973 -0.001812868712231246 0.0012474818023965736 -0.001812868712231246 0.0016386860370609974 -0.0003180872575010309 0.0012474818023965736 -0.0003180872575010309 0.00443184820420601" pbc="T T T"
Si       4.37757269       4.23895414      -1.23044498
Si       2.93032266       3.88255018       4.38973758
Si       3.37580444       0.87631031      -0.63083375
Si       3.93209091       7.24519401       3.79012635
Si       1.98850219       6.96425171       2.33089298
Si       5.31939316       1.15725261       0.82839962
Si       6.32426788       5.03856550       2.11991643
Si       0.98362748       3.08293882       1.03937617
8
Lattice="5.004856808291496 0.3728127934988608 -0.6378897931866321 1.844846501771824 6.888567983867979 -1.3785366883332102 0.48612305753910834 0.9189265631436374 5.217511309840525" Properties=species:S:1:pos:R:3 unique_starting_index=84 config_type=initial n_minim_iter=16 stress="-0.0011528628859110309 -0.00023318502761130724 0.0013693076623288432 -0.00023318502761130724 0.0004242233159985311 0.00030802320138429904 0.0013693076623288432 0.00030802320138429904 0.0031414748352626668" pbc="T T T"
Si       4.35934024       4.27855986      -1.16137931
Si       2.97648612       3.90174748       4.36246414
Si       3.38330590       0.87444983      -0.62315021
Si       3.95252046       7.30585751       3.82423503
Si       2.01585488       6.98995125       2.35751456
Si       5.31997149       1.19035610       0.84357027
Si       6.35292898       5.06822383       2.16066940
Si       0.98289739       3.11208351       1.04041543
8
Lattice="5.023974140917959 0.3554534052562639 -0.6088159112015797 1.83078272551748 6.895292263603273 -1.3424641439620442 0.5103694316164236 0.938722299437546 5.175032360832144" Properties=species:S:1:pos:R:3 unique_starting_index=84 config_type=initial n_minim_iter=17 stress="-0.0010772049841745064 -0.0006374923560999092 0.0009281455361216382 -0.0006374923560999092 0.0004707045223887368 0.0006136080153863256 0.0009281455361216382 0.0006136080153863256 -0.0006113317773704883" pbc="T T T"
Si       4.35306227       4.28758876      -1.09586354
Si       3.01206403       3.90187921       4.31961584
Si       3.40917024       0.85279793      -0.61671619
Si       3.95595606       7.33667004       3.84046850
Si       2.03095529       6.99285904       2.37116124
Si       5.33417101       1.19660893       0.85259106
Si       6.38867828       5.05454706       2.19099086
Si       0.97644802       3.13492091       1.03276145
8
Lattice="5.044082169010754 0.35322357753320627 -0.598290802307693 1.8327557737134972 6.877489273714048 -1.3385586489538515 0.521629270536466 0.9339472432707682 5.162452267966968" Properties=species:S:1:pos:R:3 unique_starting_index=84 config_type=initial n_minim_iter=18 stress="-0.00020532291440216287 0.0008966846909447395 -0.0005858726030631765 0.0008966846909447395 -0.0006524227838895088 0.00011706005292667046 -0.0005858726030631765 0.00011706005292667046 -0.0028587108371312658" pbc="T T T"
Si       4.36795461       4.29334294      -1.06700174
Si       3.03051260       3.87131715       4.29260456
Si       3.43508736       0.83064333      -0.62004255
Si       3.96337985       7.33401676       3.84564536
Si       2.05664680       6.95804944       2.37094915
Si       5.34182041       1.20661066       0.85465366
Si       6.42157712       5.02157985       2.20674535
Si       0.97689009       3.14308024       1.01885747
8
Lattice="5.031344656858507 0.3434890457965862 -0.6096818860935114 1.817760139994144 6.8441027261445075 -1.382299633189704 0.5115811376003746 0.8955225573241691 5.211331743269263" Properties=species:S:1:pos:R:3 unique_starting_index=84 config_type=initial n_minim_iter=19 stress="0.00031789753284230894 -0.0010992367556823053 -0.0008219314089313012 -0.0010992367556823053 1.4416900183707747e-05 -0.0002743862761970694 -0.0008219314089313012 -0.0002743862761970694 -0.0002576539545513697" pbc="T T T"
Si       4.36356717       4.26352837      -1.10420780
Si       2.99711877       3.81958596       4.32355803
Si       3.42813310       0.81085835      -0.62609717
Si       3.93255283       7.27225598       3.84544739
Si       2.04620313       6.89951734       2.34771339
Si       5.31448280       1.18359699       0.87163684
Si       6.38743071       4.96193889       2.20965366
Si       0.97325523       3.12117544       1.00969656
8
Lattice="5.0266211209634735 0.35198793900114417 -0.6034106650829675 1.8238284077509759 6.85157542899119 -1.3788693503307852 0.5190723141703744 0.8996768958951038 5.216109604751135" Properties=species:S:1:pos:R:3 unique_starting_index=84 config_type=initial n_minim_iter=20 stress="0.0003455347583520197 -9.27233985315629e-05 -0.00027924189931045776 -9.27233985315629e-05 0.00030074529193964693 5.094011078020261e-06 -0.00027924189931045776 5.094011078020261e-06 0.0003516045120175291" pbc="T T T"
Si       4.36345710       4.27827888      -1.09670837
Si       3.00606475       3.82496139       4.33053796
Si       3.42449519       0.81544390      -0.62197584
Si       3.94502666       7.28779637       3.85580543
Si       2.06041916       6.90594058       2.35386009
Si       5.30910269       1.19729969       0.87996950
Si       6.39130757       4.97708402       2.22207684
Si       0.97821427       3.12615624       1.01175275
8
Lattice="5.019671083587021 0.363833950439168 -0.5878826304484875 1.8308679852078815 6.853610872872188 -1.3737150932873594 0.5363150060661941 0.9025457202038817 5.224423415352465" Properties=species:S:1:pos:R:3 unique_starting_index=84 config_type=initial n_minim_iter=21 stress="-0.00010885361055591852 0.0009650932774915066 0.0008143102088236126 0.0009650932774915066 -0.00024979005016156545 3.935653417619309e-05 0.0008143102088236126 3.935653417619309e-05 0.0009357723949544045" pbc="T T T"
Si       4.36048045       4.29002679      -1.08064882
Si       3.02637363       3.82996376       4.34347451
Si       3.42377019       0.82153551      -0.61212779
Si       3.96308389       7.29845503       3.87495348
Si       2.08975601       6.90297379       2.36425931
Si       5.29709807       1.21701676       0.89856638
Si       6.39969379       4.99161483       2.24788992
Si       0.98716028       3.12837571       1.01493577
