12
Lattice="5.104801726698094 0.6332214634776365 0.4708733421213552 2.4308924383712434 4.5135978034359985 2.1301192075318767 3.1797371182224317 3.2333576604305017 12.92185923164484" Properties=species:S:1:pos:R:3 unique_starting_index=192 config_type=initial n_minim_iter=1 energy=-1954.1368247378848 free_energy=-1954.1368247378848 pbc="T T T"
Si       8.62981243       3.57433395      13.06672214
Si       4.46419168       5.99674722       3.34331404
Si       7.04223557       3.16074877       5.46575860
Si       9.22257613       6.21180766      10.27374471
Si       7.85986763       5.80391076      14.11803455
Si       4.63209334       3.39384245      10.59892537
Si       8.77050640       8.02670846      14.31631113
Si       2.73295609       4.60929658       4.15756812
Si       7.59177724       5.45287670      11.77858327
Si       5.90261806       3.80874941       3.53396207
Si       4.83190534       5.79457286      12.06934173
Si       3.25207178       2.25304019       3.07774296
12
Lattice="5.120430733228255 0.6376593859690716 0.47395092592314836 2.4434740049458483 4.514035381366404 2.1302796856323045 3.202466527232404 3.2597375469637444 12.860441846965024" Properties=species:S:1:pos:R:3 unique_starting_index=192 config_type=initial n_minim_iter=2 stress="-0.001253432142924893 -0.0003881293940120042 0.00042482482812305805 -0.0003881293940120042 -0.0019661449055031685 0.0026309248872251906 0.00042482482812305805 0.0026309248872251906 -0.008201963220784243" pbc="T T T"
Si       8.66835318       3.60546401      13.00968007
Si       4.48528307       5.99737037       3.34323190
Si       7.07045690       3.17554806       5.44879182
Si       9.26543512       6.23509932      10.24064841
Si       7.89381582       5.83442891      14.05665986
Si       4.65800687       3.41717323      10.55221529
Si       8.81409671       8.05447503      14.26606226
Si       2.75034918       4.61354920       4.14972316
Si       7.62922888       5.47614716      11.73292345
Si       5.92369614       3.81777904       3.52505493
Si       4.85949628       5.81579595      12.01654586
Si       3.26787086       2.25708633       3.06564527
12
Lattice="5.163585898625307 0.6501796016766256 0.48032914684269024 2.475997709976618 4.522168976827432 2.138404421275745 3.2487899599524996 3.268896602783609 12.89835276234654" Properties=species:S:1:pos:R:3 unique_starting_index=192 config_type=initial n_minim_iter=3 stress="0.007413533142593566 0.0001341253165309685 0.0012967580605058816 0.0001341253165309685 0.003959913606736824 0.001047768484449507 0.0012967580605058816 0.001047768484449507 0.00024602683455431107" pbc="T T T"
Si       8.75816656       3.62897780      13.05303549
Si       4.53966917       6.00487023       3.36149895
Si       7.14216079       3.19741634       5.47166487
Si       9.37213428       6.26565770      10.28275562
Si       7.96989716       5.85977674      14.09413196
Si       4.71704895       3.43239276      10.58592283
Si       8.91725293       8.08074646      14.32245014
Si       2.79379863       4.62051327       4.17174868
Si       7.71833457       5.49367713      11.77397366
Si       5.97847978       3.83793490       3.53393364
Si       4.92033617       5.82709578      12.04514002
Si       3.30797812       2.25909488       3.07006146
12
Lattice="5.131261059173356 0.6534114227671567 0.47265008032617056 2.464483221392111 4.494020949878794 2.1304505238238827 3.214927383935376 3.2303957811568313 12.910412498389588" Properties=species:S:1:pos:R:3 unique_starting_index=192 config_type=initial n_minim_iter=4 stress="0.00020094917546546596 0.0008672374025500961 0.0005049905024672721 0.0008672374025500961 -0.002273652877197824 -0.0015622893608456996 0.0005049905024672721 -0.0015622893608456996 -0.0010581452967230542" pbc="T T T"
Si       8.68742446       3.59802324      13.05679824
Si       4.51513267       5.96276163       3.35430104
Si       7.09592325       3.18209938       5.46487245
Si       9.31458183       6.22827972      10.28085021
Si       7.89445247       5.81387806      14.08899270
Si       4.68107288       3.40131390      10.59323043
Si       8.85234595       8.02045686      14.32720086
Si       2.78329897       4.58746574       4.17327173
Si       7.66513518       5.44708433      11.77439309
Si       5.93843111       3.82025778       3.52114104
Si       4.87702892       5.77319053      12.04177812
Si       3.29021459       2.23805445       3.06064557
12
Lattice="5.103517759824415 0.6477168506974179 0.4640152796106003 2.4380396403515108 4.5145609859462565 2.152634211192651 3.159571895464283 3.29852158864388 12.955506160371026" Properties=species:S:1:pos:R:3 unique_starting_index=192 config_type=initial n_minim_iter=5 stress="-0.0016342637662124322 -0.0014147270712568584 -0.001355925061639514 -0.0014147270712568584 0.0007591602333675767 0.001447295593784655 -0.001355925061639514 0.001447295593784655 0.00013958644507716238" pbc="T T T"
Si       8.60083765       3.65932052      13.09094442
Si       4.46918944       5.98658887       3.38255042
Si       7.04236076       3.20753594       5.47420925
Si       9.23502464       6.28846296      10.31966936
Si       7.79505249       5.89046745      14.13000410
Si       4.62924585       3.45513731      10.63300102
Si       8.75505371       8.10299111      14.38954222
Si       2.75539562       4.61950742       4.20386343
Si       7.59182441       5.50432146      11.81307342
Si       5.89281946       3.83939583       3.53763466
Si       4.80681232       5.83706301      12.09279689
Si       3.26349023       2.24701482       3.06978493
12
Lattice="5.1052499025539575 0.6638212436468962 0.4759821601765413 2.456774264025149 4.519742430653632 2.1600093285845996 3.1983799681378122 3.3066930006256894 12.97447418491093" Properties=species:S:1:pos:R:3 unique_starting_index=192 config_type=initial n_minim_iter=6 stress="-0.0023386706933116643 0.00032122552071906716 0.0006182820722851828 0.00032122552071906716 0.0025143227737439867 0.00031704168613824865 0.0006182820722851828 0.00031704168613824865 0.000576399171789536" pbc="T T T"
Si       8.63592841       3.68882397      13.12625524
Si       4.48982702       5.99500763       3.39359598
Si       7.06681810       3.22910376       5.48805636
Si       9.28177861       6.32516287      10.35131786
Si       7.82748993       5.91633195      14.14854402
Si       4.66995139       3.46668037      10.66034079
Si       8.80848799       8.12990811      14.42632541
Si       2.78459054       4.62862801       4.21346207
Si       7.64179966       5.52038631      11.83454280
Si       5.91305118       3.85560072       3.56004211
Si       4.84710636       5.84086864      12.11944995
Si       3.27689777       2.24764299       3.08053247
12
Lattice="5.150672002668823 0.6617291817271077 0.46429728411122534 2.4780401214068397 4.467618194769261 2.1611381546915807 3.197031206632089 3.273994393623453 13.004771609292575" Properties=species:S:1:pos:R:3 unique_starting_index=192 config_type=initial n_minim_iter=7 stress="0.00044843553692118493 0.001419978533077133 -0.002483323186786509 0.001419978533077133 -0.0001565637162682263 0.00032167989736341134 -0.002483323186786509 0.00032167989736341134 0.0005815050097701996" pbc="T T T"
Si       8.67487005       3.66590119      13.15374440
Si       4.51748145       5.92602370       3.39015008
Si       7.12858122       3.19919605       5.47471522
Si       9.35819883       6.28243588      10.36259482
Si       7.83626560       5.86543976      14.14734775
Si       4.70288776       3.43080532      10.69495087
Si       8.85506423       8.04996328      14.45627689
Si       2.81046833       4.58261941       4.21433938
Si       7.70169492       5.45373859      11.83455580
Si       5.96525791       3.81526986       3.56750275
Si       4.85547865       5.76207636      12.15489660
Si       3.30096065       2.20846206       3.08128432
12
Lattice="5.160240936051431 0.6435646179588307 0.4845067381442874 2.4772636458430926 4.443287027963588 2.1689806664856905 3.244562177575057 3.243056654925567 13.025567305653563" Properties=species:S:1:pos:R:3 unique_starting_index=192 config_type=initial n_minim_iter=8 stress="-0.0003884518274251273 -0.0016534716417892436 0.0022737966160174586 -0.0016534716417892436 -0.0010908253053820032 -5.309014848505687e-06 0.0022737966160174586 -5.309014848505687e-06 0.000987290315977502" pbc="T T T"
Si       8.72989839       3.61966702      13.19844098
Si       4.51787311       5.89164244       3.40626945
Si       7.15795355       3.15981662       5.50381969
Si       9.40107451       6.23049553      10.40592322
Si       7.87955562       5.81247968      14.17974567
Si       4.74674679       3.39558917      10.72531999
Si       8.90501667       7.98515303      14.50095195
Si       2.81753840       4.55895550       4.22038795
Si       7.75251929       5.39899030      11.86161658
Si       5.98066297       3.78136486       3.59301654
Si       4.89042318       5.71394542      12.18281673
Si       3.31244484       2.18424328       3.09377030
12
Lattice="5.176790861599925 0.6488149205672074 0.4817505058987379 2.4901882199208565 4.441741712983084 2.154239714112058 3.257316081795493 3.216011811917129 12.995844018469269" Properties=species:S:1:pos:R:3 unique_starting_index=192 config_type=initial n_minim_iter=9 stress="0.00010048704763513024 -0.00045506606845138894 0.0014495844807908488 -0.00045506606845138894 0.0023415683460064913 -0.002416052438988782 0.0014495844807908488 -0.002416052438988782 -0.002555806463756866" pbc="T T T"
Si       8.75770321       3.60283448      13.16821695
Si       4.53640748       5.89816112       3.38857414
Si       7.18944111       3.14704511       5.48951786
Si       9.44274194       6.22380721      10.37983251
Si       7.89804574       5.78817518      14.13725476
Si       4.76665995       3.37519352      10.70767569
Si       8.94561166       7.96078556      14.46553417
Si       2.82398746       4.56085869       4.19040240
Si       7.79236081       5.37475422      11.81141484
Si       6.00759373       3.78002748       3.57902496
Si       4.90226607       5.68695432      12.15201156
Si       3.32378414       2.17714876       3.07825863
12
Lattice="5.196536639546674 0.6622462482806192 0.48997009861436197 2.514308152895101 4.42654628179822 2.1810553828607357 3.2881634775324944 3.2466177336029833 13.071399206466184" Properties=species:S:1:pos:R:3 unique_starting_index=192 config_type=initial n_minim_iter=10 stress="-1.1094894148370128e-05 0.0023747810118637516 0.002138955511460932 0.0023747810118637516 -0.0002304988221323191 0.0008756993399987197 0.002138955511460932 0.0008756993399987197 0.00011352779210056237" pbc="T T T"
Si       8.80628795       3.65277833      13.24962453
Si       4.57007038       5.89428807       3.43167774
Si       7.23608192       3.15670475       5.53447199
Si       9.51118501       6.25183938      10.46596467
Si       7.93802289       5.81879198      14.22422736
Si       4.80397705       3.40161805      10.78419954
Si       9.01836635       7.98094073      14.57958194
Si       2.84060845       4.56134733       4.21502251
Si       7.85634356       5.39209116      11.87121861
Si       6.04787420       3.78410029       3.61603395
Si       4.93374136       5.69841467      12.23815288
Si       3.34279370       2.17899906       3.09588884
12
Lattice="5.2127279903461 0.6404252846960627 0.4777543157242962 2.5022153222491483 4.394702195317339 2.174138803071785 3.2574081886787383 3.206651491040104 13.08283703109248" Properties=species:S:1:pos:R:3 unique_starting_index=192 config_type=initial n_minim_iter=11 stress="0.00029985085164968453 0.00015615821718841763 -0.0006794767506594257 0.00015615821718841763 0.00046038461533676444 -0.0003703515386780929 -0.0006794767506594257 -0.0003703515386780929 -0.00032467628952371016" pbc="T T T"
Si       8.79415205       3.59518400      13.24713479
Si       4.55444545       5.85714031       3.42544837
Si       7.24832755       3.10387073       5.52206833
Si       9.51154647       6.18584920      10.46296721
Si       7.89641528       5.74868179      14.21286631
Si       4.78850014       3.35727230      10.79858482
Si       8.99397388       7.89729031      14.58531358
Si       2.81370278       4.53132089       4.20073546
Si       7.84633720       5.31674458      11.85118378
Si       6.05432807       3.74015164       3.61069952
Si       4.88792357       5.63794089      12.24591806
Si       3.33781606       2.15097734       3.08508005
12
Lattice="5.223705799209232 0.6227161219263602 0.4824357959169415 2.4962265302385527 4.366108136462218 2.1856151648944975 3.2626389901524155 3.189879037981258 13.129682728580093" Properties=species:S:1:pos:R:3 unique_starting_index=192 config_type=initial n_minim_iter=12 stress="0.0005112269053863225 -0.0015058606047638915 -0.0012997333672188193 -0.0015058606047638915 -0.0010672188141906214 0.00019977914826773343 -0.0012997333672188193 0.00019977914826773343 0.0005848548814311939" pbc="T T T"
Si       8.82012636       3.56316168      13.29201883
Si       4.54460815       5.82973922       3.45007061
Si       7.27465905       3.06464805       5.53859540
Si       9.54447968       6.13805740      10.51371235
Si       7.88804439       5.70039599      14.24650634
Si       4.80344740       3.33456848      10.84865632
Si       9.00479758       7.84252689      14.65713975
Si       2.79221827       4.50510301       4.21214003
Si       7.85662474       5.25899410      11.88514060
Si       6.06701783       3.70384815       3.64294599
Si       4.86612910       5.60337913      12.30033632
Si       3.33683484       2.13764273       3.09182160
12
Lattice="5.193578365691458 0.6452537147978185 0.5065561448742795 2.5060616896022005 4.405313294110354 2.195885893184958 3.314441234283316 3.2231322800414004 13.136601111061957" Properties=species:S:1:pos:R:3 unique_starting_index=192 config_type=initial n_minim_iter=13 stress="-0.0008996418594313085 0.0009001582127099295 0.0018282821199355366 0.0009001582127099295 7.133213180945476e-05 -0.0005711225489669593 0.0018282821199355366 -0.0005711225489669593 -0.0002777094389121723" pbc="T T T"
Si       8.85468541       3.61622998      13.32217445
Si       4.54139355       5.89036340       3.47110632
Si       7.27268728       3.10868624       5.56638501
Si       9.57028993       6.20453147      10.54901549
Si       7.92416840       5.75201367      14.25820254
Si       4.84548968       3.37906638      10.85694776
Si       9.03290420       7.92487540      14.70221699
Si       2.80409430       4.54680456       4.22487269
Si       7.87079851       5.31886509      11.91575776
Si       6.05417623       3.75280129       3.67721141
Si       4.89460541       5.66729030      12.32505325
Si       3.33903897       2.18134958       3.10078182
12
Lattice="5.207650267617345 0.6397105865125837 0.5047382096683729 2.5084559224949023 4.3868647631901165 2.20602732772589 3.3113319035244317 3.2229474083507488 13.177632339148424" Properties=species:S:1:pos:R:3 unique_starting_index=192 config_type=initial n_minim_iter=14 stress="0.00028794461334610155 0.0009165114705449243 7.880936581930956e-05 0.0009165114705449243 -4.485932496832576e-05 0.0005491779738328076 7.880936581930956e-05 0.0005491779738328076 -0.00012811557294717984" pbc="T T T"
Si       8.87209334       3.61776500      13.36317902
Si       4.53244993       5.87506673       3.49126971
Si       7.30302644       3.08950953       5.57944873
Si       9.60880133       6.19148554      10.58924585
Si       7.90492445       5.73123099      14.27817738
Si       4.86808873       3.37517228      10.89852242
Si       9.03612855       7.89918484      14.77284745
Si       2.79679524       4.53946595       4.23164571
Si       7.89206923       5.29078373      11.92627832
Si       6.06790891       3.73904463       3.69970163
Si       4.86794041       5.65009239      12.37801387
Si       3.35002715       2.17385570       3.09747331
12
Lattice="5.200493124377011 0.6318189201208588 0.5015263140554581 2.4970010070639015 4.388433701315731 2.2009767397566815 3.2957157977696143 3.214979671226036 13.166980618723995" Properties=species:S:1:pos:R:3 unique_starting_index=192 config_type=initial n_minim_iter=15 stress="0.0005606698746970567 -0.0003122708702635108 -0.00040894339550773403 -0.0003122708702635108 0.000544188941457662 0.0003204297155357743 -0.00040894339550773403 0.0003204297155357743 0.0006274897639704856" pbc="T T T"
Si       8.85320688       3.60126958      13.34800625
Si       4.51395299       5.87641481       3.48470983
Si       7.28665657       3.08008362       5.57248611
Si       9.58190062       6.17374621      10.57305879
Si       7.88570825       5.71280927      14.26654127
Si       4.85387076       3.36710557      10.88264050
Si       9.00165606       7.88615517      14.75661537
Si       2.78082302       4.53818904       4.22665782
Si       7.86418376       5.27962004      11.91189415
Si       6.05149941       3.73389220       3.69408660
Si       4.84590362       5.64857856      12.36651205
Si       3.34379311       2.17568252       3.09215251
12
Lattice="5.19240834694586 0.6296124158007023 0.5017480402371273 2.492768046839191 4.383160267942021 2.1920730284186107 3.2945344175147784 3.194140446646174 13.144150246272241" Properties=species:S:1:pos:R:3 unique_starting_index=192 config_type=initial n_minim_iter=16 stress="-0.0007149970017124061 -0.000385117460746311 -0.0001902065919152082 -0.000385117460746311 -0.00037700935780892814 -0.0006231907697766103 -0.0001902065919152082 -0.0006231907697766103 -0.00043826407190279356" pbc="T T T"
Si       8.84514992       3.58339657      13.32470167
Si       4.50063945       5.86920269       3.47510166
Si       7.27864441       3.07364640       5.56047762
Si       9.57181835       6.15347262      10.54905344
Si       7.87419148       5.68221786      14.23742488
Si       4.85994394       3.34751094      10.85852333
Si       8.98245407       7.85918422      14.73321608
Si       2.77680338       4.52801980       4.21968699
Si       7.85375896       5.25264758      11.88067668
Si       6.04024130       3.72848901       3.69189038
Si       4.83815451       5.63021527      12.34358296
Si       3.34609068       2.17171364       3.08551327
12
Lattice="5.202312577772689 0.6326321751565288 0.5053728950247144 2.5014967149909926 4.381689282942891 2.195897434447687 3.3108013684905906 3.200202517843046 13.146737954261301" Properties=species:S:1:pos:R:3 unique_starting_index=192 config_type=initial n_minim_iter=17 stress="0.0006050362890469259 0.0002573792190209903 0.00030323478280179305 0.0002573792190209903 -0.00011367444339114061 0.0003331283655019844 0.00030323478280179305 0.0003331283655019844 0.00013831698953351536" pbc="T T T"
Si       8.87132775       3.59569247      13.32752995
Si       4.51186855       5.87499687       3.48584153
Si       7.30070380       3.07779645       5.56747947
Si       9.60150212       6.16145476      10.55674091
Si       7.89536638       5.68662782      14.24164793
Si       4.88349775       3.34916117      10.86099491
Si       9.01233367       7.86573782      14.75024805
Si       2.78402212       4.52932741       4.22260010
Si       7.87994660       5.24828280      11.87427684
Si       6.05693668       3.73275381       3.70315041
Si       4.85536664       5.63537399      12.34918799
Si       3.35693986       2.17472676       3.09032278
12
Lattice="5.186637782961771 0.632556158305253 0.5010230600621238 2.491608177148251 4.389494258501914 2.1912767233724773 3.290972079495488 3.2033725092151775 13.131705908787609" Properties=species:S:1:pos:R:3 unique_starting_index=192 config_type=initial n_minim_iter=18 stress="-0.0007293897679419345 8.11891306171009e-05 3.966492115679288e-05 8.11891306171009e-05 0.0003920057000565442 9.05195118547298e-05 3.966492115679288e-05 9.05195118547298e-05 -6.070496238759632e-06" pbc="T T T"
Si       8.83630605       3.59522570      13.30669346
Si       4.49317002       5.88922850       3.48221495
Si       7.27410527       3.08322256       5.56038102
Si       9.56080929       6.16789125      10.53435171
Si       7.86118426       5.69339548      14.21829230
Si       4.86321159       3.34864953      10.83955887
Si       8.97109195       7.87883758      14.73290563
Si       2.77622183       4.53779632       4.21891630
Si       7.84541344       5.24565714      11.85337127
Si       6.03458447       3.74111556       3.69851176
Si       4.83430741       5.64374467      12.32904433
Si       3.34414530       2.18288271       3.09059538
12
Lattice="5.196528699661918 0.6226140178776662 0.4958819962843977 2.4885936541177 4.372398818213212 2.1794510269643936 3.2839950693340794 3.1681046275766045 13.112211387821295" Properties=species:S:1:pos:R:3 unique_starting_index=192 config_type=initial n_minim_iter=19 stress="0.0007984325807718877 -5.878920867120278e-06 -0.00033091019376305493 -5.878920867120278e-06 6.033716108637142e-05 -0.000531529652322283 -0.00033091019376305493 -0.000531529652322283 0.00020730544591630174" pbc="T T T"
Si       8.84504457       3.54768469      13.28323808
Si       4.48535674       5.87637851       3.46864474
Si       7.28427579       3.05786624       5.55269805
Si       9.56299748       6.11652241      10.50433416
Si       7.85618255       5.63861251      14.18229806
Si       4.86733739       3.31211544      10.81315780
Si       8.96019300       7.82298254      14.70965916
Si       2.77159633       4.52065935       4.20408025
Si       7.84994825       5.18689735      11.81480540
Si       6.03842450       3.72155904       3.69298049
Si       4.82557517       5.59974615      12.30313919
Si       3.34962126       2.17703955       3.08419008
12
Lattice="5.1880860589483655 0.6221571824946088 0.49599478655134505 2.483444541057836 4.376734789061817 2.181988238965667 3.2774380043400435 3.1780989833974416 13.112803576364255" Properties=species:S:1:pos:R:3 unique_starting_index=192 config_type=initial n_minim_iter=20 stress="-0.0007117509983371338 -0.00015954293521220318 0.00016675934277341758 -0.00015954293521220318 -0.0006483850381652788 0.0004875193099726982 0.00016675934277341758 0.0004875193099726982 -0.0005698781426859112" pbc="T T T"
Si       8.82965906       3.55519780      13.28137868
Si       4.47898527       5.88486274       3.46959161
Si       7.26856365       3.06804680       5.55539646
Si       9.53987983       6.12288518      10.50480449
Si       7.84265950       5.65187625      14.18601355
Si       4.85323021       3.31979523      10.81413508
Si       8.94118897       7.83896369      14.71001132
Si       2.76918834       4.52697990       4.21042476
Si       7.83803358       5.19340276      11.82161750
Si       6.02698181       3.72596601       3.69467809
Si       4.82235501       5.60547074      12.30017338
Si       3.34518533       2.17947609       3.08762466
12
Lattice="5.191055905567887 0.6159671085846254 0.4940212559427032 2.4799586153696924 4.370493828526887 2.175240963532648 3.273388024268285 3.154482016149687 13.111860732054646" Properties=species:S:1:pos:R:3 unique_starting_index=192 config_type=initial n_minim_iter=21 stress="0.00011870207853118846 0.00022413400031422154 6.420967443157913e-05 0.00022413400031422154 0.00015667943060199501 -0.0003769503851498565 6.420967443157913e-05 -0.0003769503851498565 0.0005666964994829981" pbc="T T T"
Si       8.83556651       3.52418184      13.27760197
Si       4.46771543       5.89310308       3.46347366
Si       7.27466898       3.05881604       5.55606548
Si       9.53858911       6.09017513      10.49281002
Si       7.83143864       5.61393080      14.16917322
Si       4.85582645       3.29434525      10.80924469
Si       8.92599025       7.80941151      14.71469001
Si       2.76365809       4.52619777       4.20358082
Si       7.84208117       5.14508903      11.80429228
Si       6.02685227       3.71877125       3.69873471
Si       4.81371421       5.57129605      12.29178943
Si       3.34905537       2.17981902       3.08659448
