8
Lattice="8.674416081099668 -1.8456358306537306 1.5384055330952247 -3.409949854434668 8.186825267322765 -1.5384055330952118 -1.8162363210338195 -3.848036639448287 3.501605448163041" Properties=species:S:1:pos:R:3 unique_starting_index=38 config_type=initial n_minim_iter=1 energy=-1301.9657258276206 free_energy=-1301.9657258276206 pbc="T T T"
Si       3.64311630       3.84484746       1.19216362
Si       1.29277018       0.44022968       2.30944152
Si      -0.19488814      -1.35169429       2.30944152
Si       2.15545798       2.05292349       1.19216362
Si       3.00309653      -0.95249504       2.96268981
Si       1.95951697       5.26976558       0.53891533
Si       0.44513164       3.44564821       0.53891533
Si       1.48871119      -2.77661242       2.96268981
8
Lattice="8.6789107771084 -1.8468942780229103 1.5341334915538716 -3.4120137031161883 8.191011734880473 -1.5341334915538587 -1.8193560138507032 -3.847919722061356 3.5074539827465543" Properties=species:S:1:pos:R:3 unique_starting_index=38 config_type=initial n_minim_iter=2 stress="0.0008739777294096902 -0.000734176698687434 -0.0002732608648124497 -0.000734176698687434 0.0005991571307996168 0.00022686163349047 -0.0002732608648124497 0.00022686163349047 -0.00031801211792374445" pbc="T T T"
Si       3.64444053       3.84759193       1.19451869
Si       1.29210451       0.44215312       2.31293499
Si      -0.19690121      -1.35139383       2.31293499
Si       2.15543481       2.05404498       1.19451869
Si       3.00293667      -0.95180917       2.96563659
Si       1.95953170       5.27277957       0.54181708
Si       0.44460265       3.44800728       0.54181708
Si       1.48800762      -2.77658146       2.96563659
8
Lattice="8.668443211072015 -1.836739909597908 1.5367574345171775 -3.4001069499691785 8.18259090556662 -1.5367574345171644 -1.8215217566527873 -3.84758589605921 3.512997306721563" Properties=species:S:1:pos:R:3 unique_starting_index=38 config_type=initial n_minim_iter=3 stress="-0.00033135337561599496 0.0005681063431833452 -0.0003613272505453966 0.0005681063431833452 -0.0001186970415387011 0.00029997449630990246 -0.0003613272505453966 0.00029997449630990246 0.00013580280855913767" pbc="T T T"
Si       3.64581568       3.84949821       1.19672138
Si       1.29155952       0.44418932       2.31627562
Si      -0.19900292      -1.35123274       2.31627562
Si       2.15525324       2.05407615       1.19672138
Si       2.99880015      -0.94835400       2.97035131
Si       1.96296234       5.27141666       0.54264569
Si       0.44801261       3.44661946       0.54264569
Si       1.48385042      -2.77315119       2.97035131
8
Lattice="8.668875244446246 -1.8393315669826564 1.544546088719249 -3.4027338538661906 8.182538783093237 -1.544546088719236 -1.8181280674139395 -3.8481703600772876 3.5168610029225755" Properties=species:S:1:pos:R:3 unique_starting_index=38 config_type=initial n_minim_iter=4 stress="1.5902340139989054e-06 -6.511520856584682e-05 0.00023073730977772142 -6.511520856584682e-05 -2.2784008084052227e-05 -0.00019155850596932434 0.00023073730977772142 -0.00019155850596932434 0.00019663989014035333" pbc="T T T"
Si       3.64659300       3.84733380       1.19827841
Si       1.29268274       0.44397073       2.31858229
Si      -0.19858142      -1.35229657       2.31858229
Si       2.15532884       2.05106650       1.19827841
Si       3.00021243      -0.95080883       2.97547826
Si       1.96148841       5.26912498       0.54138243
Si       0.44779915       3.44584606       0.54138243
Si       1.48652318      -2.77408776       2.97547826
8
Lattice="8.664643079795217 -1.834882725655583 1.5283810306025225 -3.397582361488397 8.179197296437806 -1.5283810306025094 -1.8240190208198535 -3.8442149716219878 3.511897707441301" Properties=species:S:1:pos:R:3 unique_starting_index=38 config_type=initial n_minim_iter=5 stress="-0.00019982203828866792 -0.00021600212410473308 -0.00020512860731343406 -0.00021600212410473308 -0.00028067700570107043 0.00017029811774416927 -0.00020512860731343406 0.00017029811774416927 -0.0004814695182420766" pbc="T T T"
Si       3.64854031       3.84871970       1.19548746
Si       1.28779579       0.45009514       2.31640994
Si      -0.20550035      -1.34861973       2.31640994
Si       2.15524416       2.05000482       1.19548746
Si       2.99285540      -0.94690680       2.96816130
Si       1.96170567       5.26767411       0.54373610
Si       0.45018455       3.44700676       0.54373610
Si       1.48133428      -2.76757415       2.96816130
8
Lattice="8.666981729330798 -1.8286289418133428 1.5265858591085397 -3.3918655524181878 8.182646526504143 -1.5265858591085264 -1.8293323291689623 -3.847999188671426 3.5148275259062074" Properties=species:S:1:pos:R:3 unique_starting_index=38 config_type=initial n_minim_iter=6 stress="0.0004927912168131844 0.00040757576439563135 0.00010923654671741878 0.00040757576439563135 0.0006453569625669509 -9.068836637913733e-05 0.00010923654671741878 -9.068836637913733e-05 -0.0002591912054142413" pbc="T T T"
Si       3.65505446       3.85380640       1.19527160
Si       1.28628397       0.45364968       2.31955562
Si      -0.20927235      -1.34778764       2.31955562
Si       2.15949814       2.05236908       1.19527160
Si       2.99109205      -0.94492923       2.97033937
Si       1.96671605       5.27222346       0.54448784
Si       0.45469006       3.45094799       0.54448784
Si       1.47906606      -2.76620470       2.97033937
8
Lattice="8.659272638598814 -1.828955899571746 1.5238155679191168 -3.3907687038009957 8.175008862960832 -1.5238155679191034 -1.8283574497202226 -3.842081477282657 3.5200437314750466" Properties=species:S:1:pos:R:3 unique_starting_index=38 config_type=initial n_minim_iter=7 stress="-0.0002070112362102622 -0.00022852522169195961 2.0491922259870783e-06 -0.00022852522169195961 -0.0002925539105216183 -1.701242862021053e-06 2.0491922259870783e-06 -1.701242862021053e-06 0.0002837001116201711" pbc="T T T"
Si       3.65134074       3.84741574       1.19609008
Si       1.28166047       0.45474139       2.32395335
Si      -0.21119599      -1.34344389       2.32395335
Si       2.15848427       2.04923047       1.19609008
Si       2.98603886      -0.94444271       2.97373018
Si       1.96248652       5.26529911       0.54631324
Si       0.45410589       3.44841456       0.54631324
Si       1.47765822      -2.76132726       2.97373018
8
Lattice="8.660361379049586 -1.8276891003221984 1.522857713970838 -3.389723819377498 8.176312071558613 -1.5228577139708244 -1.8294271745595938 -3.843364063325045 3.517902504849378" Properties=species:S:1:pos:R:3 unique_starting_index=38 config_type=initial n_minim_iter=8 stress="-2.4599683293039394e-05 -5.910513464917733e-05 2.7357190892179216e-05 -5.910513464917733e-05 -4.6724205242880744e-05 -2.271198628367398e-05 2.7357190892179216e-05 -2.271198628367398e-05 8.095079854181686e-05" pbc="T T T"
Si       3.65264555       3.84912151       1.19579837
Si       1.28202736       0.45505514       2.32210383
Si      -0.21143690      -1.34386224       2.32210383
Si       2.15918128       2.05020413       1.19579837
Si       2.98697739      -0.94395362       2.97178337
Si       1.96385851       5.26759902       0.54611883
Si       0.45423125       3.44921289       0.54611883
Si       1.47735014      -2.76233975       2.97178337
8
Lattice="8.659165182258489 -1.8245240226310915 1.5190595653203376 -3.386392700568406 8.175718564158908 -1.5190595653203243 -1.8318265451979394 -3.8435440948371884 3.5160658563393494" Properties=species:S:1:pos:R:3 unique_starting_index=38 config_type=initial n_minim_iter=9 stress="9.058272443922635e-05 5.8996559988135576e-05 3.404020091227288e-05 5.8996559988135576e-05 0.00011266660419309322 -2.826023253865522e-05 3.404020091227288e-05 -2.826023253865522e-05 -6.489358248365124e-05" pbc="T T T"
Si       3.65423074       3.85021091       1.19552543
Si       1.28040717       0.45663366       2.32054012
Si      -0.21328654      -1.34256010       2.32054012
Si       2.16053703       2.05101715       1.19552543
Si       2.98630723      -0.94240127       2.96936404
Si       1.96524319       5.26961742       0.54670151
Si       0.45463697       3.45005209       0.54670151
Si       1.47570100      -2.76196661       2.96936404
8
Lattice="8.65590546174367 -1.820471756345146 1.5136296771630278 -3.3818099131765105 8.173259967077719 -1.5136296771630142 -1.8347596508638786 -3.84245506632319 3.515264219013258" Properties=species:S:1:pos:R:3 unique_starting_index=38 config_type=initial n_minim_iter=10 stress="9.524144621228112e-05 8.051421273688637e-05 2.0269168808121282e-05 8.051421273688637e-05 0.00012537991857268843 -1.682749832650888e-05 2.0269168808121282e-05 -1.682749832650888e-05 -9.544338269988415e-05" pbc="T T T"
Si       3.65552702       3.85020591       1.19539896
Si       1.27723068       0.45899593       2.31986495
Si      -0.21619286      -1.33987240       2.31986495
Si       2.16210348       2.05133758       1.19539896
Si       2.98416827      -0.94023842       2.96736228
Si       1.96615259       5.27059556       0.54790164
Si       0.45516589       3.45057193       0.54790164
Si       1.47318157      -2.76026205       2.96736228
8
Lattice="8.65387450896594 -1.8189824529571252 1.5113514246100923 -3.3799723985659673 8.171537662278045 -1.5113514246100785 -1.8357699322640562 -3.841419531937969 3.5156900334168744" Properties=species:S:1:pos:R:3 unique_starting_index=38 config_type=initial n_minim_iter=11 stress="3.3102533788035145e-05 3.0471964849701925e-05 4.749133874923443e-06 3.0471964849701925e-05 4.450894812353018e-05 -3.942738998761036e-06 4.749133874923443e-06 -3.942738998761036e-06 -3.954088601125484e-05" pbc="T T T"
Si       3.65565656       3.84953509       1.19546324
Si       1.27553720       0.46003538       2.32022649
Si      -0.21752612      -1.33839905       2.32022649
Si       2.16259324       2.05110066       1.19546324
Si       2.98279327      -0.93931574       2.96714134
Si       1.96610877       5.27021631       0.54854839
Si       0.45533717       3.45045178       0.54854839
Si       1.47202167      -2.75908027       2.96714134
