14
Lattice="7.172039931729796 0.901724065150152 2.3223949921715095 1.5563975322335515 9.508750954943274 -2.9777499330589756 -1.8761318569698922 -2.846014879547683 6.7973277502519025" Properties=species:S:1:pos:R:3 unique_starting_index=20 config_type=initial n_minim_iter=1 energy=-2276.7994260850423 free_energy=-2276.7994260850423 pbc="T T T"
Si       5.65579661       3.90048645       7.38711736
Si       6.25049919       3.30773114       1.34181536
Si       1.19650899       3.66397369      -1.24514455
Si       0.60180642       4.25672900       4.80015745
Si       5.71240026       5.85509793       4.41165087
Si       6.19331095       3.58969426       3.68536986
Si       1.13990535       1.70936221       1.73032194
Si       0.65899466       3.97476588       2.45660295
Si       2.23374023       3.80604651       0.83723610
Si       0.99742778       1.91592353       4.07466526
Si       4.61856537       3.75841363       5.30473671
Si       5.85487782       5.64853661       2.06730755
Si       4.37073020       4.59763013       0.62264165
Si       2.48157540       2.96683001       5.51933116
14
Lattice="7.2067014847815845 0.8978737978728573 2.3599215111949365 1.532407783961607 9.566086149767125 -2.966577741779397 -1.850771858169659 -2.851375973226666 6.807644525132991" Properties=species:S:1:pos:R:3 unique_starting_index=20 config_type=initial n_minim_iter=2 stress="0.002906366838743245 0.0005966844983717275 0.0001382874610205724 0.0005966844983717275 0.0011108726586880478 -0.00021465612085584546 0.0001382874610205724 -0.00021465612085584546 0.004262686714199227" pbc="T T T"
Si       5.70003403       3.92776275       7.43946723
Si       6.27343428       3.31761986       1.37579111
Si       1.18830338       3.68482123      -1.23847894
Si       0.61490313       4.29496412       4.82519718
Si       5.73968622       5.89300091       4.45773887
Si       6.22488789       3.60655658       3.72577070
Si       1.14865119       1.71958306       1.74324942
Si       0.66344952       4.00602740       2.47521760
Si       2.23874827       3.82872153       0.85579573
Si       1.01241759       1.93383360       4.09391494
Si       4.64958914       3.78386244       5.34519257
Si       5.87591982       5.67875037       2.10707335
Si       4.37998514       4.62063578       0.65197159
Si       2.50835227       2.99194819       5.54901670
14
Lattice="7.187852347208899 0.8819004605127082 2.3713226038478727 1.483368903077699 9.594895293897089 -2.9189725442324184 -1.809493400260872 -2.842678429109851 6.744962359946615" Properties=species:S:1:pos:R:3 unique_starting_index=20 config_type=initial n_minim_iter=3 stress="-0.0008657152648170935 -0.0011852746617661183 0.0014251702190680102 -0.0011852746617661183 0.002894938890592958 0.0008847822077476054 0.0014251702190680102 0.0008847822077476054 -0.0033724332947896313" pbc="T T T"
Si       5.69643607       3.93963432       7.41322988
Si       6.24618329       3.30674569       1.39555343
Si       1.16529178       3.69448301      -1.21591746
Si       0.61554456       4.32737164       4.80175899
Si       5.71532636       5.91084978       4.45823890
Si       6.20683219       3.60493759       3.72508943
Si       1.14640149       1.72326754       1.73907352
Si       0.65489566       4.02917974       2.47222299
Si       2.22172091       3.83782909       0.86776643
Si       1.01425770       1.94882820       4.06969448
Si       4.64000694       3.79628823       5.32954599
Si       5.84747015       5.68528913       2.12761794
Si       4.34991246       4.62430421       0.68021413
Si       2.51181539       3.00981311       5.51709829
14
Lattice="7.135861182107775 0.8520796562854612 2.3806660830802193 1.4596272986051435 9.424262317174911 -2.948321759109191 -1.7956010940642742 -2.7961130938051295 6.789872104614441" Properties=species:S:1:pos:R:3 unique_starting_index=20 config_type=initial n_minim_iter=4 stress="-0.006238073468006867 -0.0017994561172766596 -0.0005785596362688921 -0.0017994561172766596 0.0016225933019290235 0.00045696355662537536 -0.0005785596362688921 0.00045696355662537536 0.004308117681016924" pbc="T T T"
Si       5.66231039       3.84287430       7.44120506
Si       6.19789364       3.19016430       1.38893194
Si       1.13757700       3.63735458      -1.21898863
Si       0.60199374       4.29006458       4.83328449
Si       5.65858745       5.81018584       4.47195757
Si       6.17632492       3.50532589       3.70990347
Si       1.14129994       1.67004304       1.75025886
Si       0.62356246       3.97490299       2.51231296
Si       2.20719041       3.75387731       0.87923836
Si       0.97627370       1.92499852       4.07987222
Si       4.59269698       3.72635157       5.34297806
Si       5.82361369       5.55523036       2.14234421
Si       4.30332124       4.51808330       0.73217283
Si       2.49656614       2.96214558       5.49004360
14
Lattice="7.247841073244964 0.8681565868828035 2.3681839538931215 1.5190620704812463 9.321798140273192 -2.935209746833442 -1.825373156206566 -2.781811645779105 6.729564151103164" Properties=species:S:1:pos:R:3 unique_starting_index=20 config_type=initial n_minim_iter=5 stress="0.0023362072074071894 0.0009341330295275341 -0.000265524309312059 0.0009341330295275341 0.0009054820574514031 -0.0006335938786986267 -0.000265524309312059 -0.0006335938786986267 -0.0015736537492390353" pbc="T T T"
Si       5.77923149       3.80469789       7.36910285
Si       6.30469907       3.15180462       1.37565366
Si       1.16229850       3.60344519      -1.20656449
Si       0.63683091       4.25633846       4.78688470
Si       5.77032673       5.76592325       4.42708076
Si       6.29529705       3.47421651       3.66744714
Si       1.17120326       1.64221983       1.73545760
Si       0.64623294       3.93392657       2.49509122
Si       2.25841779       3.71090422       0.87461399
Si       0.99116750       1.90669431       4.03507871
Si       4.68311219       3.69723886       5.28792437
Si       5.95036249       5.50144877       2.12745965
Si       4.38488330       4.47679012       0.74483005
Si       2.55664668       2.93135296       5.41770831
14
Lattice="7.314922165041493 0.8134336490217966 2.444932145256779 1.4673376895967045 8.812187322723869 -2.8551119166998675 -1.7555896753321423 -2.58971112994098 6.676972048186196" Properties=species:S:1:pos:R:3 unique_starting_index=20 config_type=initial n_minim_iter=6 stress="0.0030099306605790707 0.0016765655996528784 0.006881224735471819 0.0016765655996528784 -0.006928428422350822 0.0076042661362525875 0.006881224735471819 0.0076042661362525875 0.001528911003938712" pbc="T T T"
Si       5.90372362       3.63442452       7.40802511
Si       6.34430466       2.86829398       1.42216221
Si       1.12294656       3.40148532      -1.14123283
Si       0.68236552       4.16761586       4.84463007
Si       5.82611597       5.51912063       4.51151661
Si       6.38998155       3.26922082       3.73228081
Si       1.20055421       1.51678921       1.75527566
Si       0.63668863       3.76668902       2.53451147
Si       2.26098141       3.49593150       0.95408721
Si       0.97959556       1.85342240       4.03753049
Si       4.76568877       3.53997835       5.31270507
Si       6.04707462       5.18248744       2.22926179
Si       4.40005122       4.23981162       0.85953351
Si       2.62661896       2.79609822       5.40725876
14
Lattice="7.358960594302329 0.7404450359677669 2.4553940936747907 1.4257440083607116 8.441442032438392 -2.865455038654211 -1.7330501766579505 -2.4891841607929845 6.652822968906847" Properties=species:S:1:pos:R:3 unique_starting_index=20 config_type=initial n_minim_iter=7 stress="0.004284263357961854 -0.0003083046638317614 0.009667354001655184 -0.0003083046638317614 -0.01843205839532295 0.012226761950229792 0.009667354001655184 0.012226761950229792 0.0009502282062735224" pbc="T T T"
Si       5.96269297       3.44163417       7.35742411
Si       6.36657736       2.61344430       1.39211835
Si       1.08896146       3.25106873      -1.11466209
Si       0.68507707       4.07925861       4.85064367
Si       5.83845438       5.29582554       4.49362034
Si       6.44905929       3.06953388       3.71446994
Si       1.21320004       1.39687737       1.74914168
Si       0.60259514       3.62316903       2.52829208
Si       2.25151303       3.31909505       0.98002820
Si       0.93472819       1.78373381       4.01045298
Si       4.80014139       3.37360786       5.26273383
Si       6.11692624       4.90896910       2.23230904
Si       4.40217124       4.04640353       0.89634314
Si       2.64948318       2.64629938       5.34641889
14
Lattice="7.277771713612433 0.7648536749167434 2.4134699824677295 1.4992687992572045 8.422647145613027 -2.985934940121392 -1.762662813060545 -2.5683354047833444 6.687975199201289" Properties=species:S:1:pos:R:3 unique_starting_index=20 config_type=initial n_minim_iter=8 stress="-0.0013515088457005035 0.001950547628103697 0.007283814776981707 0.001950547628103697 -0.011997346687680313 0.00968688221170539 0.007283814776981707 0.00968688221170539 0.0028413085026328666" pbc="T T T"
Si       5.91814436       3.38629341       7.24510297
Si       6.30944738       2.52893521       1.29002018
Si       1.09623334       3.23287200      -1.12959273
Si       0.70493032       4.09023021       4.82549006
Si       5.80808682       5.29253544       4.39095550
Si       6.41612558       3.03113566       3.64960450
Si       1.20629088       1.32662997       1.72455474
Si       0.59825212       3.58802975       2.46590574
Si       2.23938382       3.28608573       0.95697428
Si       0.87583490       1.74183930       3.98094770
Si       4.77499388       3.33307968       5.15853596
Si       6.13854280       4.87732612       2.13456254
Si       4.39049794       4.06005535       0.82698993
Si       2.62387976       2.55911006       5.28852031
14
Lattice="7.237028997522568 0.6974925018681547 2.3382526694325194 1.456815241214686 8.563142506567258 -3.1160435426558872 -1.8018315965335632 -2.6710246970512954 6.744119982865852" Properties=species:S:1:pos:R:3 unique_starting_index=20 config_type=initial n_minim_iter=9 stress="0.0015985854433754037 -0.0018157971494399852 0.0009187264374730315 -0.0018157971494399852 -0.0001941308957068186 0.003338235058819852 0.0009187264374730315 0.003338235058819852 0.005047666124946888" pbc="T T T"
Si       5.81274382       3.31988014       7.14359040
Si       6.26321105       2.50267871       1.19484854
Si       1.07926882       3.26973017      -1.17726129
Si       0.62880159       4.08693160       4.77148057
Si       5.71820760       5.27994562       4.26786236
Si       6.33991992       2.98582420       3.56288641
Si       1.17380505       1.30966469       1.69846675
Si       0.55209272       3.60378611       2.40344270
Si       2.20030252       3.30709223       0.89231622
Si       0.82006420       1.70846527       3.96711062
Si       4.69171012       3.28251809       5.07401289
Si       6.07194844       4.88114504       1.99921849
Si       4.34873033       4.09100918       0.69649638
Si       2.54328232       2.49860113       5.26983273
14
Lattice="7.174205775743151 0.6952844387140523 2.323971777091798 1.4922927288423078 8.593929944024007 -3.270391375891858 -1.794199253370903 -2.788295239068803 6.777741792558812" Properties=species:S:1:pos:R:3 unique_starting_index=20 config_type=initial n_minim_iter=10 stress="-0.0026756278986882305 0.001196299684175915 0.002915661909239648 0.001196299684175915 0.0010380164474088492 -0.00291811507706549 0.002915661909239648 -0.00291811507706549 0.001038287825038378" pbc="T T T"
Si       5.79571730       3.23723995       7.05187113
Si       6.21066223       2.47841987       1.14042903
Si       1.07658195       3.26367919      -1.22054894
Si       0.66163702       4.02249928       4.69089316
Si       5.70726755       5.24608231       4.15284077
Si       6.29541980       2.93549580       3.49657828
Si       1.16503170       1.25483683       1.67848142
Si       0.57687945       3.56542334       2.33474391
Si       2.20877615       3.29323594       0.83490352
Si       0.80315623       1.63841916       3.94339008
Si       4.66352310       3.20768320       4.99641867
Si       6.06914302       4.86249999       1.88793211
Si       4.33625525       4.10372613       0.58324444
Si       2.53604400       2.39719302       5.24807775
14
Lattice="7.135358012739275 0.696958454141015 2.216968576975936 1.534567877226931 8.57154853976324 -3.2742379206143437 -1.8883685046820355 -2.776524472829294 6.780133753873095" Properties=species:S:1:pos:R:3 unique_starting_index=20 config_type=initial n_minim_iter=11 stress="-0.0012697662327495326 0.0011772624163412656 -0.0063074376513794755 0.0011772624163412656 0.004199098834214166 -0.0003224931104335365 -0.0063074376513794755 -0.0003224931104335365 -0.0034991661716395933" pbc="T T T"
Si       5.70246961       3.25763977       6.93995332
Si       6.17861560       2.45467672       1.04902202
Si       1.07908777       3.23434275      -1.21708891
Si       0.60294179       4.03730580       4.67384239
Si       5.65064842       5.26474652       4.05467721
Si       6.23123016       2.91648340       3.38498793
Si       1.13090897       1.22723601       1.66818720
Si       0.55032722       3.57549912       2.33787648
Si       2.21209956       3.28960244       0.80301357
Si       0.72248898       1.63522765       3.94122264
Si       4.56945783       3.20238008       4.91985084
Si       6.05906840       4.85675488       1.78164177
Si       4.32696669       4.10596384       0.48597967
Si       2.45459069       2.38601868       5.23688474
14
Lattice="7.1375554907856325 0.6161860873678838 2.2569175378995854 1.4432658416425115 8.503007900593799 -3.3461273269030993 -1.8252569816261557 -2.7918318283100088 6.805309241808519" Properties=species:S:1:pos:R:3 unique_starting_index=20 config_type=initial n_minim_iter=12 stress="0.0013546426938040499 -0.0009269635613078402 -0.00035636617063378634 -0.0009269635613078402 -0.0006172794320311387 -0.003583930454950789 -0.00035636617063378634 -0.003583930454950789 -0.0007361195969489224" pbc="T T T"
Si       5.72348491       3.13766452       6.95602233
Si       6.15026234       2.37553729       1.07052795
Si       1.03207944       3.18969763      -1.23992287
Si       0.60530201       3.95182487       4.64557150
Si       5.63483703       5.14987647       4.03381792
Si       6.20807815       2.79776102       3.38361661
Si       1.12072732       1.17748568       1.68228153
Si       0.54748620       3.52960114       2.33248284
Si       2.20986292       3.23721858       0.78572637
Si       0.71654311       1.57342175       3.95348500
Si       4.54570143       3.09014358       4.93037309
Si       6.03902124       4.75394041       1.76261445
Si       4.29541139       4.02460269       0.45614027
Si       2.46015296       2.30275947       5.25995918
14
Lattice="7.11708408934935 0.6508786391243492 2.26851670912734 1.4591909877580733 8.518817549943547 -3.287993357472686 -1.8216606767766381 -2.763200188200627 6.791058529651061" Properties=species:S:1:pos:R:3 unique_starting_index=20 config_type=initial n_minim_iter=13 stress="0.000527992593336686 0.0008158911322323482 0.0012597147194742873 0.0008158911322323482 0.002661115497975696 -0.0013139408830808302 0.0012597147194742873 -0.0013139408830808302 0.0005078532697202689" pbc="T T T"
Si       5.72348417       3.21383312       6.99499976
Si       6.13015743       2.42108704       1.09697511
Si       1.03113023       3.19266288      -1.22341788
Si       0.62445697       3.98540896       4.67460677
Si       5.64142599       5.21061505       4.06719784
Si       6.18620179       2.83965969       3.40204655
Si       1.11318841       1.19588095       1.70438405
Si       0.56841261       3.56683631       2.36953533
Si       2.22191452       3.26231006       0.80864701
Si       0.71746507       1.59828997       3.97450526
Si       4.53269988       3.14418594       4.96293487
Si       6.03714933       4.80820603       1.79707662
Si       4.29793827       4.04203161       0.48923033
Si       2.45667613       2.36446439       5.28235155
14
Lattice="7.109217693078874 0.633404838636107 2.2529970171933704 1.4327763807972118 8.402375825314703 -3.218125214227416 -1.8333754320786915 -2.6760683165053702 6.775749526369584" Properties=species:S:1:pos:R:3 unique_starting_index=20 config_type=initial n_minim_iter=14 stress="-0.0008560344187804439 0.000999332188117568 0.001104544193830817 0.000999332188117568 -0.0018509209491589542 0.0016775222150393699 0.001104544193830817 0.0016775222150393699 0.0014821126735572725" pbc="T T T"
Si       5.69945590       3.22257761       7.00937481
Si       6.10442777       2.37591697       1.09444118
Si       1.00916274       3.13713474      -1.19875348
Si       0.60419087       3.98379538       4.71618015
Si       5.62014596       5.17852238       4.07582110
Si       6.15097503       2.79688153       3.40001649
Si       1.08847268       1.18118997       1.73480023
Si       0.55764361       3.56283082       2.41060484
Si       2.21256976       3.22272353       0.83931643
Si       0.67422950       1.59854457       3.99764788
Si       4.49604888       3.13698882       4.97130490
Si       6.03438914       4.76116778       1.81297345
Si       4.29279321       3.96975177       0.52341318
Si       2.41582543       2.38996057       5.28720815
14
Lattice="7.105037639384022 0.5543900504888702 2.199431826524271 1.3363553393068224 8.298353695161923 -3.1376045474374727 -1.8574229238230366 -2.5715778390474235 6.7528711746921735" Properties=species:S:1:pos:R:3 unique_starting_index=20 config_type=initial n_minim_iter=15 stress="-0.0013297327963562907 0.00044751139096311376 0.0006138694895617009 0.00044751139096311376 -0.002087902136913403 0.004887134224360721 0.0006138694895617009 0.004887134224360721 0.0004314683840759154" pbc="T T T"
Si       5.62658002       3.21366104       6.99131465
Si       6.04714937       2.29689292       1.05379445
Si       0.95739003       3.06750487      -1.17661619
Si       0.53682069       3.98427298       4.76090401
Si       5.56649962       5.11808117       4.02493424
Si       6.06261285       2.70105373       3.37695142
Si       1.01747044       1.16308474       1.78976421
Si       0.52135720       3.58011218       2.43774703
Si       2.16646639       3.17057962       0.87249145
Si       0.57610742       1.57862634       4.03026498
Si       4.41750366       3.11058629       4.94220700
Si       6.00786264       4.70253956       1.78443347
Si       4.28202952       3.85611608       0.52665915
Si       2.30194053       2.42504983       5.28803931
14
Lattice="7.128468277102441 0.4452317725985372 2.14299737876644 1.2680506321477252 8.254249315440017 -3.2684133687418013 -1.8747582072442743 -2.6277403109443322 6.777878151120985" Properties=species:S:1:pos:R:3 unique_starting_index=20 config_type=initial n_minim_iter=16 stress="-0.0007993318022909882 0.0007902749142292091 0.0012067778363180658 0.0007902749142292091 -0.0015176127423578666 -0.0005555063700323544 0.0012067778363180658 -0.0005555063700323544 -0.0017099162706941124" pbc="T T T"
Si       5.60327040       3.04257016       6.85866700
Si       6.03499809       2.14940194       0.95046073
Si       0.91849030       3.02917062      -1.20620484
Si       0.48676261       3.92233884       4.70200143
Si       5.55042489       4.98198769       3.86440270
Si       6.05040475       2.53997702       3.29413292
Si       0.97133581       1.08975308       1.78805946
Si       0.47135595       3.53176375       2.35832924
Si       2.12808611       3.08978699       0.83777794
Si       0.48588546       1.48882091       4.00370362
Si       4.39367459       2.98195378       4.81468422
Si       6.03587524       4.58291987       1.64875854
Si       4.27488167       3.76525087       0.43386986
Si       2.24687903       2.30648991       5.21859230
14
Lattice="7.150083785593492 0.3633625592699976 2.0992312804913933 1.1939248210013007 8.24934415785725 -3.302193481190659 -1.8980035940013351 -2.6241144638543825 6.803025582789401" Properties=species:S:1:pos:R:3 unique_starting_index=20 config_type=initial n_minim_iter=17 stress="0.0029782188757757383 -0.0013734790362808448 -0.0015925966913128147 -0.0013734790362808448 0.0005869003539848242 -0.0008167120500934214 -0.0015925966913128147 -0.0008167120500934214 0.0014373587324953362" pbc="T T T"
Si       5.55123433       2.97866324       6.82008806
Si       6.02267099       2.08984350       0.90019008
Si       0.89477068       3.00992901      -1.22002468
Si       0.42333403       3.89874876       4.69987330
Si       5.53127026       4.91314419       3.80000746
Si       6.02612513       2.45198332       3.26157418
Si       0.91473475       1.07544806       1.80005592
Si       0.41987989       3.53660893       2.33848920
Si       2.09474692       3.05625901       0.83047813
Si       0.42508764       1.45036113       4.01869063
Si       4.35125809       2.93233324       4.76958525
Si       6.02091737       4.53823113       1.58137275
Si       4.25742859       3.70886546       0.37712135
Si       2.18857642       2.27972679       5.22294204
14
Lattice="7.140778177053378 0.3665162179044285 2.1094380486282716 1.18955859786266 8.266074287717265 -3.3016166235736586 -1.8809581641800126 -2.635267418874248 6.788242706500259" Properties=species:S:1:pos:R:3 unique_starting_index=20 config_type=initial n_minim_iter=18 stress="-0.0016960899695607353 0.000975668522156149 -5.163836719654201e-05 0.000975668522156149 0.0020212481146898395 0.0007419824501182119 -5.163836719654201e-05 0.0007419824501182119 8.195519878434285e-05" pbc="T T T"
Si       5.55348557       2.98403066       6.80715662
Si       6.00823556       2.09731717       0.90675617
Si       0.89589304       3.01329242      -1.21109249
Si       0.44114305       3.90000591       4.68930796
Si       5.56364342       4.92001620       3.79937765
Si       6.03808818       2.43960992       3.26345413
Si       0.88573519       1.07730689       1.79668648
Si       0.41129043       3.55771317       2.33261000
Si       2.09551930       3.04910197       0.84373365
Si       0.42039954       1.43776820       4.02109925
Si       4.35385931       2.94822111       4.75233049
Si       6.02897907       4.55955489       1.57496488
Si       4.23930711       3.71003721       0.37666675
Si       2.21007150       2.28728587       5.21939738
14
Lattice="7.184468923609834 0.30990739622236996 2.105489666591703 1.1413421803628268 8.200988662145022 -3.3248781171589634 -1.8725496315392673 -2.6264320795816034 6.781365379680907" Properties=species:S:1:pos:R:3 unique_starting_index=20 config_type=initial n_minim_iter=19 stress="0.0008426764778631331 -0.0007245607054103885 0.0005283810158332095 -0.0007245607054103885 -0.0006327320351638327 -0.00038679420809959 0.0005283810158332095 -0.00038679420809959 -0.0004606491341864843" pbc="T T T"
Si       5.57419312       2.89804569       6.77047119
Si       6.03107508       2.02940924       0.89460265
Si       0.87906835       2.98641829      -1.20849426
Si       0.42218639       3.85505474       4.66737428
Si       5.58259302       4.83632438       3.77481745
Si       6.06765045       2.35373731       3.24066420
Si       0.87066845       1.04813960       1.78715948
Si       0.38561102       3.53072667       2.32131273
Si       2.08675598       2.99442013       0.84612022
Si       0.40337086       1.40656107       4.01255851
Si       4.36650549       2.89004385       4.71585671
Si       6.04989062       4.47790291       1.54941842
Si       4.23503614       3.64316021       0.37490020
Si       2.21822534       2.24130377       5.18707672
14
Lattice="7.177620358002737 0.2869905541857794 2.0717455383212653 1.1444713388582255 8.138877339964356 -3.3655788741720016 -1.9024906721290553 -2.624352036459583 6.807873919362252" Properties=species:S:1:pos:R:3 unique_starting_index=20 config_type=initial n_minim_iter=20 stress="-0.0013296973870655254 0.0003027083133448751 -0.0015941472837133106 0.0003027083133448751 -0.0035678868400555314 -0.00038030649557830963 -0.0015941472837133106 -0.00038030649557830963 0.0010652305995900754" pbc="T T T"
Si       5.54206788       2.84623297       6.71770715
Si       6.01978938       1.99872977       0.85144092
Si       0.87753315       2.95528289      -1.20366657
Si       0.39981165       3.80278609       4.66259966
Si       5.58710100       4.79059958       3.73630202
Si       6.03864036       2.28541146       3.19687641
Si       0.83250002       1.01091627       1.77773857
Si       0.38096067       3.51610440       2.31716417
Si       2.07122401       2.94084411       0.85370176
Si       0.37117628       1.37063579       4.03125424
Si       4.34837702       2.86067175       4.66033882
Si       6.04842475       4.43088006       1.48278634
Si       4.22601435       3.59778463       0.33063068
Si       2.19358668       2.20373123       5.18340991
14
Lattice="7.194976570607513 0.2603238026527852 2.0661734383769383 1.1066818666603853 8.157172808887147 -3.3463882856890743 -1.8929095791990438 -2.6193590025080895 6.778696160413067" Properties=species:S:1:pos:R:3 unique_starting_index=20 config_type=initial n_minim_iter=21 stress="0.0021880624934147407 -8.342013071528289e-05 0.0005723936332825458 -8.342013071528289e-05 0.0011424334471285466 0.0005882257407104129 0.0005723936332825458 0.0005882257407104129 -0.0020211700002846344" pbc="T T T"
Si       5.54808778       2.84442062       6.67556794
Si       6.01685676       1.98687437       0.84003627
Si       0.86066108       2.95371699      -1.17708663
Si       0.39189209       3.81126324       4.65844504
Si       5.60460370       4.81360288       3.71737815
Si       6.01891690       2.24372598       3.17586749
Si       0.80414516       0.98453473       1.78110317
Si       0.38983195       3.55441163       2.32261382
Si       2.06021943       2.91883646       0.88245641
Si       0.36403568       1.36285257       4.02994988
Si       4.34852943       2.87930115       4.61602490
Si       6.04471318       4.43528503       1.46853143
Si       4.22288693       3.58269300       0.32828407
Si       2.18586192       2.21544461       5.17019724
