24
Lattice="5.79645246532139 -1.2125177340499451 0.994243116604082 1.448718016157992 8.744030231929598 -0.8838711808197165 2.516996705464991 1.8276277184822125 8.900810829832857" Properties=species:S:1:pos:R:3 unique_starting_index=94 config_type=initial n_minim_iter=1 energy=-3908.333277646086 free_energy=-3908.333277646086 pbc="T T T"
Si       8.06645337       6.95422407       8.51898783
Si       0.40913498       2.09862007       1.74691848
Si       1.67847664       7.41806892      -0.46881342
Si       6.45680510       8.88481612       5.93455708
Si       4.61951249       2.38747607       1.63995095
Si       5.00080596       3.95501775       9.34230462
Si       3.61095065       0.93187848       3.34996598
Si       2.25912411      -1.02053163       2.78171900
Si       8.05353376       0.69912032       6.01800383
Si       8.55137016       7.59414133       6.28454857
Si       4.92481998       5.88536023       7.68646257
Si       5.98271276       1.29907055       5.02996692
Si       5.17434205       6.49698100       3.38080606
Si       2.49563068       5.59617803       7.36417423
Si       5.30090521       3.48045546       5.32804359
Si       6.74701207       4.86371851       6.51480440
Si       4.19161465       1.96235182       8.16502202
Si       3.27954337       5.85853450       0.27589397
Si       7.80583864       4.07904934       3.22669560
Si       3.29743889       3.37749337       6.51782408
Si       7.64636663       6.08981302       4.59874046
Si      -0.07334248      -0.11584458       2.35449686
Si       4.71394360       7.32317911       5.56981643
Si       5.41278348       4.14255556       3.08049005
24
Lattice="5.788864823931208 -1.212200758203387 0.9886451854163727 1.448936923687643 8.747318938723021 -0.88442851747061 2.5071873024318436 1.8283584232051955 8.890150308204408" Properties=species:S:1:pos:R:3 unique_starting_index=94 config_type=initial n_minim_iter=2 stress="-0.0006267276657097202 3.660509154025715e-05 7.083565314855333e-05 3.660509154025715e-05 -0.0006977091931607917 -2.8917868265854967e-05 7.083565314855333e-05 -2.8917868265854967e-05 -0.000550370389404093" pbc="T T T"
Si       8.05128474       6.95741239       8.50398910
Si       0.40775886       2.09938902       1.74477633
Si       1.67815073       7.42086681      -0.46973215
Si       6.44579381       8.88851682       5.92347560
Si       4.61307104       2.38892320       1.63456721
Si       4.98817574       3.95689199       9.32927133
Si       3.60438236       0.93276102       3.34389296
Si       2.25417635      -1.02069691       2.77732400
Si       8.03924353       0.70026642       6.00551181
Si       8.53744438       7.59760224       6.27136089
Si       4.91380272       5.88792005       7.67490695
Si       5.97209290       1.30023762       5.02028748
Si       5.16660758       6.49973789       3.37319675
Si       2.48766237       5.59824654       7.35488976
Si       5.29092728       3.48231707       5.31853146
Si       6.73447494       4.86599531       6.50297727
Si       4.18052168       1.96353552       8.15342240
Si       3.27627014       5.86108904       0.27299117
Si       7.79493904       4.08118537       3.21736143
Si       3.28868351       3.37879406       6.50902982
Si       7.63449619       6.09317596       4.58779051
Si      -0.07489542      -0.11634820       2.35206188
Si       4.70505316       7.32658754       5.56046791
Si       5.40475450       4.14474445       3.07292618
24
Lattice="5.7882576851202705 -1.2134721407446836 0.984423126565096 1.4500683770603744 8.75878005047887 -0.8853603203558145 2.5008242248787624 1.8310554435293367 8.888864841959066" Properties=species:S:1:pos:R:3 unique_starting_index=94 config_type=initial n_minim_iter=3 stress="-7.496500375313452e-05 0.00016331093875484362 -0.0004024774989567276 0.00016331093875484362 0.0005751050143806509 -8.45545142213146e-07 -0.0004024774989567276 -8.45545142213146e-07 0.0001760811419388052" pbc="T T T"
Si       8.04560485       6.96689589       8.49857201
Si       0.40698087       2.10218699       1.74447954
Si       1.67929819       7.43058296      -0.47056728
Si       6.44203512       8.90039184       5.91943163
Si       4.61187918       2.39238359       1.63128352
Si       4.98182073       3.96262240       9.32642210
Si       3.60231425       0.93451500       3.34161378
Si       2.25220530      -1.02189032       2.77591532
Si       8.03461157       0.70166331       5.99969585
Si       8.53335166       7.60781941       6.26557286
Si       4.90865978       5.89609281       7.67184819
Si       5.96873559       1.30247751       5.01627192
Si       5.16469769       6.50828473       3.36975923
Si       2.48274232       5.60576842       7.35359549
Si       5.28719342       3.48730704       5.31502130
Si       6.72980418       4.87259647       6.49854094
Si       4.17481115       1.96671734       8.15041748
Si       3.27635467       5.86899106       0.27101542
Si       7.79319720       4.08654591       3.21223396
Si       3.28383803       3.38329461       6.50745444
Si       7.63125896       6.10211872       4.58227946
Si      -0.07618637      -0.11703478       2.35185241
Si       4.70149554       7.33708929       5.55753473
Si       5.40296833       4.15067978       3.06899837
24
Lattice="5.799163974451832 -1.2260412661483568 0.9863252896628325 1.4335213592503888 8.76225536527707 -0.8809932383893134 2.506940137999786 1.8287376299915612 8.8719164887915" Properties=species:S:1:pos:R:3 unique_starting_index=94 config_type=initial n_minim_iter=4 stress="0.0007167368336168995 -0.0006143005742717828 0.0001663291227394704 -0.0006143005742717828 0.0006861882261398696 -0.00010382552563242909 0.0001663291227394704 -0.00010382552563242909 -0.0013983265562676765" pbc="T T T"
Si       8.04786193       6.95479971       8.48555621
Si       0.40915610       2.10254801       1.73966326
Si       1.67093342       7.43258148      -0.46425659
Si       6.43635833       8.89340909       5.91468450
Si       4.61153673       2.38609314       1.63091707
Si       4.98879888       3.95831699       9.31291604
Si       3.61027429       0.93202828       3.33925081
Si       2.26006295      -1.02696457       2.77275908
Si       8.04263182       0.68541614       5.98980022
Si       8.53253801       7.59442870       6.25889300
Si       4.90959404       5.89280538       7.65960582
Si       5.97749632       1.29445003       5.01081298
Si       5.16227753       6.49945464       3.36792390
Si       2.48156237       5.60519683       7.34063097
Si       5.28875984       3.47987762       5.30797813
Si       6.72949730       4.86152387       6.49046251
Si       4.18300997       1.96333135       8.13132992
Si       3.26768322       5.86751446       0.27751834
Si       7.80016601       4.06963176       3.21571029
Si       3.28207690       3.37787310       6.50073685
Si       7.62721595       6.09765454       4.57543764
Si      -0.06898992      -0.12286150       2.34164992
Si       4.69708228       7.34119182       5.55070319
Si       5.40480432       4.14591785       3.06424017
24
Lattice="5.792320102374208 -1.2218328943814425 0.9882102604288798 1.4352012463135988 8.750438197416349 -0.8798352653386456 2.5049353966244237 1.8303827298586077 8.892895464788035" Properties=species:S:1:pos:R:3 unique_starting_index=94 config_type=initial n_minim_iter=5 stress="-1.9614722174662172e-05 -2.3007281546627055e-05 -8.362516484522692e-05 -2.3007281546627055e-05 -0.00017621373890885778 0.00011043093791551961 -8.362516484522692e-05 0.00011043093791551961 7.238050550873755e-05" pbc="T T T"
Si       8.04135333       6.94993057       8.50669870
Si       0.41229896       2.09990845       1.74329812
Si       1.67507523       7.42225667      -0.46127225
Si       6.43248449       8.88497846       5.93278300
Si       4.60573080       2.38576885       1.63523294
Si       4.98584972       3.95905022       9.33699659
Si       3.60836230       0.93564834       3.34869454
Si       2.25782689      -1.02384770       2.77971361
Si       8.03048980       0.68889896       6.00203489
Si       8.52521481       7.58775464       6.27544243
Si       4.90695620       5.89007591       7.67906868
Si       5.97111105       1.29852836       5.02320825
Si       5.16006439       6.49141476       3.37834703
Si       2.48193805       5.60043973       7.35944565
Si       5.28256247       3.47861623       5.32138350
Si       6.72140458       4.85854991       6.50739009
Si       4.17976495       1.96658548       8.14772147
Si       3.26560437       5.86125468       0.28256786
Si       7.79458934       4.06523015       3.22747656
Si       3.27707958       3.37539327       6.51935000
Si       7.61768872       6.09738715       4.58584972
Si      -0.06554681      -0.12541689       2.34399279
Si       4.69459016       7.33952048       5.56635127
Si       5.40109252       4.14497546       3.07096145
24
Lattice="5.7872999802125795 -1.2212436547854648 0.9964200763959259 1.437795088341729 8.762515615763022 -0.889659653598898 2.5136907169807223 1.8223008159285727 8.893867094665815" Properties=species:S:1:pos:R:3 unique_starting_index=94 config_type=initial n_minim_iter=6 stress="-0.00034892376564238327 0.000540731505668606 0.0005960538303051921 0.000540731505668606 0.0005385136918536676 -0.0008073798240587246 0.0005960538303051921 -0.0008073798240587246 5.097325866726441e-05" pbc="T T T"
Si       8.04758321       6.95069046       8.50750690
Si       0.41671321       2.09957903       1.74164650
Si       1.67993837       7.42960109      -0.47160457
Si       6.43952081       8.89225004       5.93018959
Si       4.60441480       2.38962784       1.63752741
Si       4.99493838       3.95524255       9.33788152
Si       3.61119695       0.93675804       3.35413199
Si       2.26018362      -1.02784773       2.78573649
Si       8.02781041       0.68663574       6.01011368
Si       8.52735419       7.59150400       6.27446442
Si       4.91488941       5.89071934       7.67719464
Si       5.96999448       1.29843989       5.02698489
Si       5.16394786       6.49740289       3.37715822
Si       2.49129673       5.59773702       7.35515426
Si       5.28192768       3.47818978       5.32200379
Si       6.72387653       4.85913324       6.50963258
Si       4.18767263       1.96128704       8.14950746
Si       3.26698223       5.86887936       0.28080746
Si       7.79445890       4.06750633       3.23532033
Si       3.27938691       3.37118006       6.51878781
Si       7.61483467       6.10525460       4.58458316
Si      -0.06019214      -0.12940583       2.34252148
Si       4.69948312       7.34638871       5.56150517
Si       5.40284893       4.14837655       3.07062305
24
Lattice="5.7871271024824384 -1.2305586001918662 0.9923150037142244 1.4218092279816605 8.759630082629865 -0.8785051788763383 2.5055422284461617 1.8300706192296072 8.896537960797577" Properties=species:S:1:pos:R:3 unique_starting_index=94 config_type=initial n_minim_iter=7 stress="-7.631636238002367e-05 5.66009009830351e-05 0.00031434472179344027 5.66009009830351e-05 0.0005276057235231344 9.439188983897275e-05 0.00031434472179344027 9.439188983897275e-05 0.00033628161830230016" pbc="T T T"
Si       8.02943020       6.94623485       8.51567000
Si       0.41650065       2.09886654       1.74652209
Si       1.67487153       7.41724350      -0.47171775
Si       6.42329259       8.89349633       5.94410157
Si       4.59766807       2.38550898       1.63953626
Si       4.98507954       3.96254727       9.34122122
Si       3.61307439       0.94206353       3.36164222
Si       2.26665630      -1.02971634       2.79038141
Si       8.01382299       0.68119557       6.00765049
Si       8.50375168       7.58045965       6.27812860
Si       4.90041234       5.89652962       7.68372411
Si       5.95664244       1.29927661       5.02158687
Si       5.15298115       6.49360734       3.38808997
Si       2.47738130       5.60072589       7.36181862
Si       5.25958961       3.47503790       5.32110442
Si       6.70628291       4.85522197       6.51570363
Si       4.18377711       1.96739322       8.14950001
Si       3.25799779       5.86161646       0.29421993
Si       7.78717622       4.04995132       3.25120280
Si       3.25642856       3.36969467       6.52180295
Si       7.58503614       6.10560251       4.58345127
Si      -0.05252598      -0.12728597       2.33770414
Si       4.67839281       7.35524141       5.56723748
Si       5.39537555       4.14126626       3.07085484
24
Lattice="5.7905113612682095 -1.2311375542010905 0.9885005977555996 1.4220100597090415 8.753259871337054 -0.8842142623139464 2.500334815723613 1.823401660797709 8.892119564505933" Properties=species:S:1:pos:R:3 unique_starting_index=94 config_type=initial n_minim_iter=8 stress="0.00044728994199099537 1.9751720278561944e-05 -0.00020429070921905345 1.9751720278561944e-05 -0.00013032323482182394 -0.0004893806400298758 -0.00020429070921905345 -0.0004893806400298758 0.00020224928104617873" pbc="T T T"
Si       8.02757327       6.93443282       8.50458001
Si       0.41601773       2.09586435       1.74492164
Si       1.67705843       7.40977349      -0.47855838
Si       6.42289141       8.88351132       5.93413064
Si       4.59944154       2.38215187       1.63466726
Si       4.98153184       3.95437378       9.33312760
Si       3.61426149       0.94042298       3.35970928
Si       2.26778421      -1.03107254       2.79034775
Si       8.01286237       0.67624968       6.00002224
Si       8.50251599       7.56891964       6.26569297
Si       4.89727496       5.88790080       7.67536285
Si       5.95493378       1.29549012       5.01442993
Si       5.15400325       6.48587421       3.38096198
Si       2.47266994       5.59129535       7.35533976
Si       5.25601588       3.46877861       5.31357244
Si       6.70434253       4.84653632       6.50690884
Si       4.18136643       1.96145273       8.14362444
Si       3.25988072       5.85574812       0.29025841
Si       7.79048877       4.04222232       3.24567206
Si       3.25043908       3.36209673       6.51629267
Si       7.58268759       6.09835052       4.57237741
Si      -0.05230896      -0.12895040       2.33548779
Si       4.67549709       7.34758152       5.55814055
Si       5.39680234       4.13539810       3.06345240
24
Lattice="5.787868426518388 -1.2311870200075001 0.9854153115560909 1.4198138548952466 8.753258165120867 -0.8729557223602669 2.4973109154672395 1.8343896107679205 8.888746914896448" Properties=species:S:1:pos:R:3 unique_starting_index=94 config_type=initial n_minim_iter=9 stress="0.00018528109493209268 0.000272766733822793 -8.863118630170216e-05 0.000272766733822793 -0.0002930833826464808 0.0004022883726076979 -8.863118630170216e-05 0.0004022883726076979 -0.0005373853924076042" pbc="T T T"
Si       8.02135205       6.94300927       8.50730215
Si       0.41757703       2.09756600       1.74616077
Si       1.68054772       7.40503435      -0.47339680
Si       6.42058567       8.89459873       5.94245243
Si       4.59786010       2.38328372       1.63629079
Si       4.97860690       3.96824588       9.32964416
Si       3.61592603       0.94849415       3.36417688
Si       2.27074515      -1.02861988       2.79191174
Si       8.00208908       0.68268859       5.99500447
Si       8.49249435       7.57392818       6.26772297
Si       4.89295332       5.90000226       7.67681698
Si       5.94515191       1.30307499       5.00908351
Si       5.15351752       6.48972206       3.38863271
Si       2.46891922       5.59862522       7.35674924
Si       5.24395158       3.47632383       5.31183973
Si       6.69658299       4.85324436       6.50747189
Si       4.18089283       1.97342641       8.14029038
Si       3.26001261       5.85383087       0.30250533
Si       7.78906761       4.04121894       3.25648867
Si       3.23942361       3.36780665       6.51604189
Si       7.56816803       6.10591602       4.57267533
Si      -0.04693379      -0.12785857       2.32727134
Si       4.66896117       7.35934787       5.56174524
Si       5.39521564       4.13878673       3.06475291
24
Lattice="5.779637929853482 -1.2425313424981796 0.9852802424159699 1.401211283862688 8.754257275447646 -0.8749260917337504 2.4875869900669128 1.8296601209222672 8.896771234933313" Properties=species:S:1:pos:R:3 unique_starting_index=94 config_type=initial n_minim_iter=10 stress="-0.0006539878760776105 -0.0006689809202676219 -0.00013392280077011726 -0.0006689809202676219 -0.0002786998191187534 0.00022370866426968874 -0.00013392280077011726 0.00022370866426968874 -0.00018806005373431958" pbc="T T T"
Si       7.99259439       6.92883193       8.51352671
Si       0.41410885       2.09734788       1.74653870
Si       1.66777724       7.40174273      -0.47733822
Si       6.39370527       8.88854659       5.94700622
Si       4.58662355       2.37449350       1.63700989
Si       4.96148235       3.96164260       9.33517160
Si       3.60992685       0.94470716       3.37148712
Si       2.27110157      -1.03348519       2.79806153
Si       7.98061517       0.66776262       5.99830249
Si       8.45899863       7.55925532       6.26969998
Si       4.87165860       5.89446542       7.68213702
Si       5.92588530       1.29337895       5.01044223
Si       5.13498788       6.48199836       3.39192537
Si       2.45207214       5.59383484       7.36214672
Si       5.22108840       3.46948429       5.31456626
Si       6.67228195       4.84133072       6.51076484
Si       4.17047974       1.96748251       8.14777833
Si       3.24588657       5.84758194       0.30627348
Si       7.76998833       4.02571264       3.26425890
Si       3.22076308       3.36127059       6.52143977
Si       7.53613745       6.09421395       4.57312719
Si      -0.04310982      -0.12961899       2.32328153
Si       4.64477198       7.35569070       5.56466167
Si       5.37899068       4.13045153       3.06580339
24
Lattice="5.775624087264862 -1.2357189892739346 0.9818996252157236 1.4109894186100413 8.755729386402727 -0.8730684032729752 2.483452405215663 1.8357217759814901 8.900365096005029" Properties=species:S:1:pos:R:3 unique_starting_index=94 config_type=initial n_minim_iter=11 stress="-0.00012086754480744385 0.00015716359483680155 8.665873889739697e-05 0.00015716359483680155 -0.00012508645933870122 0.0003050002619625577 8.665873889739697e-05 0.0003050002619625577 -0.00023685408392465213" pbc="T T T"
Si       7.99237181       6.93842879       8.51484072
Si       0.41629829       2.10067896       1.74237317
Si       1.68146963       7.40037396      -0.47600868
Si       6.40101693       8.90481629       5.94916991
Si       4.59343627       2.37438534       1.63659046
Si       4.95950561       3.97472444       9.33108979
Si       3.61187542       0.95326451       3.38215381
Si       2.27160429      -1.02819354       2.80504210
Si       7.96549784       0.67904523       5.99460886
Si       8.45389345       7.57110414       6.26863384
Si       4.87084843       5.90578951       7.68297340
Si       5.90884969       1.30287638       5.00584029
Si       5.14708160       6.48755143       3.39533107
Si       2.45022214       5.59620170       7.36414316
Si       5.21024140       3.48457193       5.31483576
Si       6.66845755       4.84999165       6.50629212
Si       4.17025489       1.97922942       8.15399923
Si       3.25752201       5.84481352       0.31695011
Si       7.77690875       4.03583740       3.27303694
Si       3.21311876       3.36726750       6.52537508
Si       7.52974757       6.09754749       4.57330640
Si      -0.03874982      -0.13245887       2.30721876
Si       4.64789078       7.36250017       5.56697799
Si       5.38245195       4.14017431       3.06774412
24
Lattice="5.77555036315991 -1.239169539222645 0.9808172747455811 1.4093869673006245 8.761939083032402 -0.8856447639044024 2.4780766991591285 1.824833483000029 8.902207799680001" Properties=species:S:1:pos:R:3 unique_starting_index=94 config_type=initial n_minim_iter=12 stress="0.0003956624234649931 -0.0001532315932070991 -9.131858396937832e-05 -0.0001532315932070991 0.0003464634223596039 -0.0007409006297519218 -9.131858396937832e-05 -0.0007409006297519218 0.0006484454789450403" pbc="T T T"
Si       7.98707428       6.92896378       8.50433768
Si       0.41595567       2.10110080       1.73623698
Si       1.68015213       7.40492431      -0.48455714
Si       6.38924501       8.90005626       5.93749241
Si       4.59376278       2.36986300       1.63209113
Si       4.95349198       3.96480166       9.32841017
Si       3.60820633       0.94680144       3.38351870
Si       2.26608647      -1.02993339       2.80636531
Si       7.96076168       0.67039939       5.99251851
Si       8.44827983       7.56697955       6.26039757
Si       4.86478246       5.89733274       7.67531578
Si       5.90047123       1.29791013       5.00117168
Si       5.14800980       6.48581842       3.38579059
Si       2.44255050       5.59099132       7.35904650
Si       5.20938762       3.47827971       5.31250053
Si       6.66417784       4.84373840       6.49921567
Si       4.16338995       1.96845211       8.15520254
Si       3.25571933       5.84690652       0.31000706
Si       7.77695786       4.03680951       3.26178588
Si       3.21246748       3.36174993       6.52596826
Si       7.53300348       6.08812482       4.56745448
Si      -0.04243728      -0.13490248       2.30793817
Si       4.64673960       7.35529453       5.56070435
Si       5.37843297       4.13756365       3.06198766
24
Lattice="5.766820856970691 -1.2436545759592061 0.9709558552476186 1.4012484510837884 8.767026857015315 -0.875389854222895 2.461087220094638 1.8362342650459558 8.896533747803955" Properties=species:S:1:pos:R:3 unique_starting_index=94 config_type=initial n_minim_iter=13 stress="-0.00011790045363956513 1.8514034602461266e-05 -8.022408707926037e-05 1.8514034602461266e-05 7.635820896494637e-05 7.373344159883495e-05 -8.022408707926037e-05 7.373344159883495e-05 5.022223615917709e-06" pbc="T T T"
Si       7.96169894       6.93326717       8.49497844
Si       0.42143474       2.10438135       1.72891537
Si       1.68795728       7.39294365      -0.48614455
Si       6.36032229       8.91749710       5.94163636
Si       4.58846388       2.36461737       1.62956481
Si       4.93634948       3.98456028       9.31628432
Si       3.60499849       0.95803557       3.39934597
Si       2.26222391      -1.02387403       2.81266038
Si       7.92149425       0.67551652       5.97717397
Si       8.41194877       7.57059183       6.25363230
Si       4.84313749       5.91282873       7.66653140
Si       5.85680925       1.31044372       4.97758737
Si       5.14934665       6.49131506       3.39177038
Si       2.41944305       5.60061095       7.35474311
Si       5.17577124       3.48511929       5.30472220
Si       6.63627303       4.85051238       6.49131208
Si       4.14926258       1.98115247       8.14872800
Si       3.25290960       5.84275158       0.33124631
Si       7.77178096       4.03521461       3.27133081
Si       3.18208573       3.36678810       6.52627765
Si       7.50261812       6.09032695       4.56045795
Si      -0.03529126      -0.13282295       2.29048301
Si       4.62731244       7.37062882       5.56107792
Si       5.36609792       4.13880433       3.05583262
24
Lattice="5.7745861053625696 -1.2405799001736413 0.9734587133033882 1.4054879742062474 8.75832920022209 -0.8745829572099103 2.4695440201221137 1.8347084493308248 8.893086316762728" Properties=species:S:1:pos:R:3 unique_starting_index=94 config_type=initial n_minim_iter=14 stress="0.0001869827195256702 -3.250352290948424e-05 0.000356280641887365 -3.250352290948424e-05 -0.0004611698593508127 0.00018482335380919004 0.000356280641887365 0.00018482335380919004 -0.0004081857111785485" pbc="T T T"
Si       7.97975748       6.92716270       8.49430004
Si       0.42760999       2.10107165       1.72456339
Si       1.69079647       7.38607875      -0.48229987
Si       6.37172758       8.90967724       5.93878653
Si       4.59336676       2.36246974       1.63095006
Si       4.95141463       3.98040935       9.31637526
Si       3.60844069       0.95874749       3.40090372
Si       2.26167260      -1.01975865       2.81148757
Si       7.93042472       0.67907396       5.97957739
Si       8.43209956       7.56725117       6.25428763
Si       4.85526770       5.90608811       7.66378195
Si       5.86451437       1.30388271       4.97797240
Si       5.16129483       6.48671954       3.39141263
Si       2.42826848       5.59762204       7.35248524
Si       5.18994688       3.48323802       5.30617266
Si       6.65153510       4.84756511       6.49282722
Si       4.15650851       1.97736087       8.14658462
Si       3.26135654       5.83914324       0.32792299
Si       7.78281567       4.03509839       3.26838693
Si       3.19285312       3.36501577       6.52332253
Si       7.52950674       6.08604865       4.56488657
Si      -0.03643215      -0.12864738       2.29348102
Si       4.63722669       7.36108302       5.56065602
Si       5.37527119       4.13495205       3.05623810
24
Lattice="5.771626245040899 -1.243061176415598 0.969320994514406 1.4024260927979542 8.760489914599512 -0.8765534938760912 2.4609786797283655 1.8336458106327191 8.892629949562245" Properties=species:S:1:pos:R:3 unique_starting_index=94 config_type=initial n_minim_iter=15 stress="0.00010345508101977019 1.3282282767848147e-06 0.0001711919816435313 1.3282282767848147e-06 -0.00027357788430756175 7.143855063305916e-05 0.0001711919816435313 7.143855063305916e-05 -0.00025808681133568357" pbc="T T T"
Si       7.96887093       6.92217516       8.48838779
Si       0.43256165       2.10071718       1.71819924
Si       1.69385245       7.38162540      -0.48528124
Si       6.35994529       8.91306003       5.93421240
Si       4.58985699       2.35804187       1.62829723
Si       4.94504125       3.98158309       9.31233060
Si       3.60547273       0.96338384       3.40973832
Si       2.25895386      -1.01807888       2.81607167
Si       7.90873917       0.67862364       5.97403988
Si       8.41841460       7.56551133       6.24656481
Si       4.84515851       5.90686458       7.65835356
Si       5.84353955       1.30001825       4.96840312
Si       5.16259315       6.48628147       3.38951337
Si       2.41818483       5.59723764       7.35042632
Si       5.17577252       3.48412078       5.30245974
Si       6.63982148       4.84525757       6.48803454
Si       4.14843980       1.97665533       8.14504550
Si       3.26339978       5.83695903       0.33006285
Si       7.77939645       4.03147593       3.26843947
Si       3.17844065       3.36314243       6.52207246
Si       7.52248754       6.08452835       4.55935792
Si      -0.03343089      -0.12808961       2.28709337
Si       4.62613504       7.36266383       5.55687461
Si       5.37084638       4.13345790       3.05084278
24
Lattice="5.767686164624739 -1.2464087337298706 0.9651574509040343 1.3979782304973507 8.763544440416519 -0.8783776780072747 2.4514511431110653 1.8328433666281911 8.893795422560926" Properties=species:S:1:pos:R:3 unique_starting_index=94 config_type=initial n_minim_iter=16 stress="-2.0783925914785925e-05 1.6984435450556173e-05 -5.5407590312925244e-05 1.6984435450556173e-05 4.683802659645268e-05 -4.54433395521329e-05 -5.5407590312925244e-05 -4.54433395521329e-05 3.685374991068083e-05" pbc="T T T"
Si       7.95560144       6.91761978       8.48424149
Si       0.43697169       2.10129811       1.71212095
Si       1.69541712       7.37801836      -0.48769983
Si       6.34583858       8.91612278       5.93145661
Si       4.58550831       2.35312856       1.62645495
Si       4.93703949       3.98248154       9.30923007
Si       3.60121287       0.96868779       3.41967605
Si       2.25698289      -1.01704265       2.82132760
Si       7.88501300       0.67781012       5.96929898
Si       8.40192953       7.56402122       6.24071444
Si       4.83323651       5.90816557       7.65482138
Si       5.82030953       1.29622516       4.95857859
Si       5.16181044       6.48628467       3.38807563
Si       2.40699703       5.59724535       7.35034069
Si       5.15978006       3.48428971       5.29921817
Si       6.62632749       4.84287724       6.48414393
Si       4.13907611       1.97639587       8.14490523
Si       3.26435561       5.83494890       0.33253279
Si       7.77354441       4.02718185       3.26874141
Si       3.16237409       3.36179453       6.52166942
Si       7.51264009       6.08284242       4.55434590
Si      -0.03031264      -0.12779373       2.28119994
Si       4.61270875       7.36480893       5.55396315
Si       5.36513136       4.13202004       3.04624286
24
Lattice="5.762491068970509 -1.2529629956621966 0.9587562704444221 1.3885703804294807 8.765944201352852 -0.8801249023849315 2.4365067869298556 1.8316548366795322 8.896966327895514" Properties=species:S:1:pos:R:3 unique_starting_index=94 config_type=initial n_minim_iter=17 stress="-0.00022810236144537745 2.727700435876217e-05 -0.0003837296993498409 2.727700435876217e-05 0.0005846656767077601 -0.00021220068391494714 -0.0003837296993498409 -0.00021220068391494714 0.0005452859877783952" pbc="T T T"
Si       7.93550428       6.90795613       8.48059255
Si       0.44570042       2.10376297       1.70028453
Si       1.69510135       7.37077239      -0.48688707
Si       6.32159646       8.91450521       5.93030982
Si       4.57855416       2.34218861       1.62654776
Si       4.92622445       3.98030718       9.30419683
Si       3.59147770       0.98101011       3.43969961
Si       2.25715188      -1.01551893       2.83082883
Si       7.84351657       0.67745856       5.96277204
Si       8.37628412       7.55990699       6.23596961
Si       4.81421187       5.90814170       7.65215830
Si       5.77852706       1.28695316       4.93993037
Si       5.15974420       6.48441140       3.38588733
Si       2.38962598       5.59628408       7.35415491
Si       5.13464431       3.48085019       5.29431515
Si       6.60620368       4.83647484       6.47919988
Si       4.12286727       1.97588870       8.14514084
Si       3.26698445       5.82980485       0.33604153
Si       7.76206032       4.01690895       3.26710980
Si       3.13534909       3.36033332       6.52050323
Si       7.50043230       6.07717621       4.54791765
Si      -0.02482916      -0.12667271       2.27401289
Si       4.58784892       7.36497205       5.55000755
Si       5.35681219       4.12798525       3.04037341
24
Lattice="5.770912086824655 -1.251423335079161 0.9638855817979457 1.3891783282555077 8.755295287743028 -0.8754047980882996 2.448736484356754 1.8323429295322617 8.896574165849684" Properties=species:S:1:pos:R:3 unique_starting_index=94 config_type=initial n_minim_iter=18 stress="0.0001131053137190113 2.7614714111086013e-05 5.5004148881161614e-05 2.7614714111086013e-05 0.00011112259418384898 -1.0322828845538236e-05 5.5004148881161614e-05 -1.0322828845538236e-05 0.00019549890849435145" pbc="T T T"
Si       7.95558094       6.90695917       8.49064142
Si       0.44467674       2.10607238       1.70212804
Si       1.68778723       7.37077974      -0.47318117
Si       6.33600841       8.89408088       5.93966301
Si       4.58460166       2.34100699       1.63550304
Si       4.94135622       3.96969321       9.30513749
Si       3.58957469       0.98389769       3.43632549
Si       2.26837142      -1.01701354       2.82607986
Si       7.86445537       0.68100068       5.96879222
Si       8.39945027       7.55654907       6.25186720
Si       4.83025806       5.90029872       7.66144322
Si       5.79621516       1.28312851       4.94396739
Si       5.15942066       6.47899793       3.38691334
Si       2.40471739       5.59314185       7.36182246
Si       5.15582648       3.47173074       5.29756312
Si       6.62694557       4.83229387       6.48496432
Si       4.13123378       1.97501745       8.14328817
Si       3.26874816       5.82749342       0.33157267
Si       7.76572964       4.01374004       3.25979200
Si       3.15203406       3.36319883       6.51793393
Si       7.52180824       6.07165648       4.55585619
Si      -0.02693044      -0.12513421       2.28715515
Si       4.59707034       7.35316674       5.55330304
Si       5.36649992       4.12534239       3.04801830
24
Lattice="5.769680736833437 -1.2572880562192563 0.9583986489337071 1.3795675637243652 8.75161491553979 -0.8723568643307182 2.438782524130525 1.8331549515090366 8.892577423159752" Properties=species:S:1:pos:R:3 unique_starting_index=94 config_type=initial n_minim_iter=19 stress="-6.260757813477953e-05 -3.0102786634018992e-05 1.9898746763564954e-05 -3.0102786634018992e-05 -0.0003113833616457065 0.00013029373414856594 1.9898746763564954e-05 0.00013029373414856594 -0.00037295928770084277" pbc="T T T"
Si       7.94276975       6.89662346       8.48494935
Si       0.45138487       2.10793723       1.69118589
Si       1.68883292       7.35930308      -0.46983626
Si       6.31654852       8.88719423       5.94071208
Si       4.58258338       2.33023358       1.63707044
Si       4.93500071       3.96774769       9.29259387
Si       3.58268767       0.99484669       3.45204192
Si       2.27319501      -1.01486563       2.83124820
Si       7.83479866       0.68159006       5.95853193
Si       8.37956702       7.54835655       6.24870768
Si       4.81900165       5.89800315       7.65572232
Si       5.76194877       1.27834442       4.92503982
Si       5.15884501       6.47292487       3.38657471
Si       2.39084125       5.59104762       7.36105411
Si       5.13664854       3.46737849       5.29125512
Si       6.61310213       4.82466815       6.47711247
Si       4.12018791       1.97520211       8.13522063
Si       3.26840741       5.81949515       0.34034042
Si       7.76167144       4.00326339       3.25762316
Si       3.13207062       3.36270611       6.51410348
Si       7.51019642       6.06140220       4.54932402
Si      -0.01990956      -0.12358390       2.28045329
Si       4.58007705       7.34893628       5.54916244
Si       5.36064811       4.12030295       3.04301519
24
Lattice="5.770295112698743 -1.2588279639703466 0.9615478496182864 1.3785683974126393 8.753800311862745 -0.8793138935814152 2.4415150437386286 1.826020729709582 8.894863738237254" Properties=species:S:1:pos:R:3 unique_starting_index=94 config_type=initial n_minim_iter=20 stress="5.967848629379922e-05 -4.833295828695661e-06 7.830383496245538e-05 -4.833295828695661e-06 0.0001479661199574723 -0.0001339033508228977 7.830383496245538e-05 -0.0001339033508228977 0.00010847438816416035" pbc="T T T"
Si       7.94538713       6.89230263       8.49095896
Si       0.45285621       2.10597148       1.68906195
Si       1.68907079       7.36527489      -0.47158587
Si       6.31937595       8.87919700       5.93978680
Si       4.58195068       2.33101476       1.63979883
Si       4.93894337       3.95466537       9.29031582
Si       3.57536310       0.99638365       3.45186168
Si       2.28136928      -1.01858366       2.82963495
Si       7.83416650       0.68147566       5.96128561
Si       8.38363088       7.54490996       6.24931791
Si       4.82831277       5.88781112       7.65722639
Si       5.76054217       1.26667255       4.93216053
Si       5.15199517       6.46913971       3.38422204
Si       2.39491444       5.58756279       7.36268759
Si       5.14076564       3.46563175       5.29341497
Si       6.61803470       4.81743659       6.47669751
Si       4.11712729       1.96377941       8.12833067
Si       3.26417849       5.82398843       0.33294351
Si       7.75969021       4.00281032       3.24788570
Si       3.13759361       3.36213552       6.51141184
Si       7.51117852       6.05752986       4.54715692
Si      -0.01453866      -0.12173787       2.29437563
Si       4.58146213       7.33830065       5.54567861
Si       5.35884436       4.12048536       3.04170229
24
Lattice="5.7693179117021165 -1.2603493388913702 0.9591235795204156 1.3759944137703009 8.752514872619969 -0.8785238841565602 2.4370534701669007 1.8265185957874952 8.89450857598069" Properties=species:S:1:pos:R:3 unique_starting_index=94 config_type=initial n_minim_iter=21 stress="1.0802916645138438e-05 -7.308301325184529e-07 -1.547254069597629e-05 -7.308301325184529e-07 5.059943135580873e-05 -3.208219983200898e-05 -1.547254069597629e-05 -3.208219983200898e-05 3.5135586209333464e-05" pbc="T T T"
Si       7.94007607       6.88943127       8.49025408
Si       0.45554197       2.10652128       1.68523997
Si       1.69000580       7.36222136      -0.46997848
Si       6.31220819       8.87708701       5.94002201
Si       4.58076688       2.32734891       1.63997802
Si       4.93609652       3.95368448       9.28612604
Si       3.57147965       1.00082568       3.45731536
Si       2.28292693      -1.01711407       2.83126492
Si       7.82178258       0.68312416       5.95806080
Si       8.37657134       7.54278296       6.24787612
Si       4.82452171       5.88660285       7.65569211
Si       5.74620793       1.26446428       4.92618220
Si       5.15138439       6.46722058       3.38411986
Si       2.38969003       5.58765442       7.36318564
Si       5.13367108       3.46522433       5.29132356
Si       6.61352755       4.81513034       6.47415423
Si       4.11149625       1.96362386       8.12542655
Si       3.26473035       5.82141268       0.33502799
Si       7.75746088       4.00078840       3.24597526
Si       3.13023437       3.36302375       6.51017687
Si       7.50724193       6.05376482       4.54517622
Si      -0.01144284      -0.12058389       2.29364159
Si       4.57540366       7.33555375       5.54512995
Si       5.35604148       4.11906812       3.04000325
