14
Lattice="5.10255375577046 0.7372414572721339 -1.0340560253289757 1.6999780038342465 5.498980226124158 -1.9747727532888382 -1.2697127471987288 -3.9505724370961963 10.83381043089869" Properties=species:S:1:pos:R:3 unique_starting_index=100 config_type=initial n_minim_iter=1 energy=-2278.6065275619508 free_energy=-2278.6065275619508 pbc="T T T"
Si       5.86402549       5.98322034      -2.07397735
Si       1.37944026       0.21218991       1.54557712
Si       5.96656563       4.26176577       1.22369695
Si       0.49022764      -0.11496471       3.74163958
Si      -0.33120648      -3.69757109       9.89895900
Si       4.15337876       2.07345934       6.27940454
Si      -0.43374662      -1.97611652       6.60128470
Si       5.04259137       2.40061395       4.08334207
Si       2.92361650       0.08670385       6.91610992
Si       2.60920251       2.19894540       0.90887174
Si       1.29792856      -1.36757167       8.09390131
Si       4.23489045       3.65322091      -0.26891966
Si       0.84998900       2.74949011      -0.98738638
Si       1.91642050      -1.60666549       4.89987720
14
Lattice="5.099883300895595 0.7389828882338705 -1.0285276151672598 1.698803456884883 5.500642349192604 -1.9736962439526196 -1.2617541026158838 -3.959642698217075 10.812068504656766" Properties=species:S:1:pos:R:3 unique_starting_index=100 config_type=initial n_minim_iter=2 stress="-0.0010902495458002199 -3.817214953149441e-05 4.518027922371951e-06 -3.817214953149441e-05 -0.0008090558748495035 0.00013441139063211498 4.518027922371951e-06 0.00013441139063211498 -0.0008449042748827711" pbc="T T T"
Si       5.86132077       5.98573769      -2.07046334
Si       1.38037061       0.21127353       1.54280138
Si       5.96601600       4.26143184       1.22203013
Si       0.49286878      -0.11749684       3.73425289
Si      -0.32438812      -3.70575515       9.88030798
Si       4.15656204       2.06870901       6.26704327
Si      -0.42908335      -1.98144930       6.58781451
Si       5.04406387       2.39747938       4.07559176
Si       2.92774007       0.08171522       6.90278707
Si       2.60919259       2.19826732       0.90705757
Si       1.30257166      -1.37356607       8.07762834
Si       4.23436100       3.65354861      -0.26778370
Si       0.84940173       2.75032117      -0.98684812
Si       1.91906460      -1.61032990       4.89177044
14
Lattice="5.106623840086972 0.7418579319731251 -1.02566861971911 1.7011491500554383 5.509570292039047 -1.9766667170709682 -1.2578752849621784 -3.9743928113966644 10.80999925800262" Properties=species:S:1:pos:R:3 unique_starting_index=100 config_type=initial n_minim_iter=3 stress="0.00038574736589863336 -3.0185311110161907e-05 0.0003540661325228877 -3.0185311110161907e-05 0.0009479933339692526 -0.00045074231782065685 0.0003540661325228877 -0.00045074231782065685 -0.0002774140359805298" pbc="T T T"
Si       5.86978971       5.99627196      -2.07218515
Si       1.38391924       0.21069933       1.54240398
Si       5.97627486       4.26668159       1.22142569
Si       0.49583926      -0.12013662       3.73382304
Si      -0.31989200      -3.71923654       9.87984907
Si       4.16597847       2.06633608       6.26525994
Si      -0.42637716      -1.98964618       6.58623823
Si       5.05405845       2.39717204       4.07384088
Si       2.93609302       0.07680494       6.90124405
Si       2.61380469       2.20023047       0.90641987
Si       1.30782250      -1.38133214       8.07526783
Si       4.24207521       3.65836755      -0.26760390
Si       0.85057458       2.75478515      -0.98833336
Si       1.92437428      -1.61626744       4.89216532
14
Lattice="5.118680054296823 0.7443139921950138 -1.0292347481078992 1.7113814715082258 5.494054092151809 -1.9769294052502489 -1.2712749990197443 -3.9599194142397276 10.815746682313641" Properties=species:S:1:pos:R:3 unique_starting_index=100 config_type=initial n_minim_iter=4 stress="0.000869074637417759 0.00041840108410104275 1.8229980096904505e-05 0.00041840108410104275 -0.0014028138215409305 -0.0006475754075788613 1.8229980096904505e-05 -0.0006475754075788613 0.00019850627280270982" pbc="T T T"
Si       5.89097187       5.98348697      -2.08009310
Si       1.39038499       0.21292126       1.54033199
Si       5.99401989       4.25977365       1.22018108
Si       0.49484439      -0.11557527       3.74077889
Si      -0.33218534      -3.70503830       9.88967562
Si       4.16840154       2.06552741       6.26925054
Si      -0.43523337      -1.98132498       6.58940144
Si       5.06394214       2.39402394       4.06880364
Si       2.93833958       0.08495465       6.90261563
Si       2.62044694       2.19349402       0.90696690
Si       1.29736655      -1.36842363       8.07348994
Si       4.26141997       3.64687230      -0.26390741
Si       0.85569074       2.74702705      -0.98846470
Si       1.92370253      -1.60780271       4.89325597
14
Lattice="5.110757991513872 0.7398773047477231 -1.0297919043669475 1.7059511438347312 5.501555395764209 -1.962823723544115 -1.2725761314483723 -3.9407417085687406 10.802158857195586" Properties=species:S:1:pos:R:3 unique_starting_index=100 config_type=initial n_minim_iter=5 stress="9.363746034892881e-06 -0.0005848790631359958 -0.000878428258594292 -0.0005848790631359958 0.00033221659207733354 2.5316244050822926e-05 -0.000878428258594292 2.5316244050822926e-05 -0.0005547883217176278" pbc="T T T"
Si       5.88088727       5.98929744      -2.07169583
Si       1.39073372       0.21655759       1.53828308
Si       5.98302216       4.26937234       1.22772022
Si       0.49295596      -0.10542683       3.74189675
Si      -0.33675427      -3.68860645       9.88123906
Si       4.15339928       2.08413340       6.27126015
Si      -0.43888916      -1.96868134       6.58182301
Si       5.05117704       2.40611782       4.06764648
Si       2.92997564       0.10363224       6.89812726
Si       2.61415737       2.19705875       0.91141597
Si       1.28539694      -1.34727945       8.06103794
Si       4.25873606       3.64797044      -0.25149471
Si       0.85297557       2.75077770      -0.98141186
Si       1.91909093      -1.60043220       4.88618348
14
Lattice="5.102310372495557 0.7459446866203606 -1.0167163588049808 1.7065564594806484 5.504378312341658 -1.9512311104320315 -1.2483451477724472 -3.925253907251488 10.808583795451689" Properties=species:S:1:pos:R:3 unique_starting_index=100 config_type=initial n_minim_iter=6 stress="-0.00012181597101878472 -1.770612521753522e-05 0.00034408247415284373 -1.770612521753522e-05 0.00016339134167531706 0.0004280829313678736 0.00034408247415284373 0.0004280829313678736 0.00010705927425505818" pbc="T T T"
Si       5.87828124       5.99857205      -2.05187892
Si       1.39616289       0.21994773       1.54485240
Si       5.98703820       4.28381640       1.25364384
Si       0.50305181      -0.09759607       3.74971532
Si      -0.31775955      -3.67350296       9.89251524
Si       4.16435880       2.10512136       6.29578393
Si      -0.42651651      -1.95874731       6.58699249
Si       5.05746988       2.42266516       4.09092100
Si       2.94420048       0.12232493       6.91674109
Si       2.61632120       2.20274416       0.92389523
Si       1.29811910      -1.32832796       8.07022478
Si       4.26240258       3.65339705      -0.22958846
Si       0.85327823       2.75218916      -0.97561556
Si       1.92698261      -1.58965461       4.89593372
14
Lattice="5.0914599336295305 0.7663866815564246 -1.0116913796250382 1.7205962019262149 5.518455553649773 -1.9531889928580395 -1.243433364475676 -3.9328773721571593 10.839513718498957" Properties=species:S:1:pos:R:3 unique_starting_index=100 config_type=initial n_minim_iter=7 stress="-0.0017234828345983751 0.0016672294509056862 0.000432192105435184 0.0016672294509056862 0.0006424219858209808 -0.0005498802498524011 0.000432192105435184 -0.0005498802498524011 0.0012889129179783005" pbc="T T T"
Si       5.89280594       6.02942673      -2.06001521
Si       1.40681791       0.21293436       1.55467818
Si       6.00241833       4.31558412       1.26996106
Si       0.51227666      -0.09451836       3.76077574
Si      -0.32418317      -3.67746187       9.93464856
Si       4.16180486       2.13903051       6.31995517
Si      -0.43379556      -1.96361925       6.60467228
Si       5.05634611       2.44648322       4.11385761
Si       2.94820518       0.13904809       6.94467924
Si       2.62041759       2.21291677       0.92995411
Si       1.28345856      -1.31436644       8.07722515
Si       4.28516421       3.66633130      -0.20259180
Si       0.86029810       2.75922778      -0.97659450
Si       1.92401328      -1.58324535       4.91391117
14
Lattice="5.1107260716365825 0.7556132657559408 -1.0006417521397704 1.7166441557813525 5.502729081306845 -1.9371825510184781 -1.2247933931731625 -3.9017532528869183 10.820413378771336" Properties=species:S:1:pos:R:3 unique_starting_index=100 config_type=initial n_minim_iter=8 stress="-0.0001725597060873032 9.072693588260364e-05 0.001551807074633301 9.072693588260364e-05 -0.00036754483591623795 0.00017512296269405769 0.001551807074633301 0.00017512296269405769 0.0007948601072589199" pbc="T T T"
Si       5.91368535       6.00617610      -2.04604762
Si       1.42447487       0.20098990       1.55932138
Si       6.03527766       4.30528679       1.29026308
Si       0.52474023      -0.08687295       3.75583004
Si      -0.31110851      -3.64958700       9.92863670
Si       4.17810197       2.15559920       6.32326769
Si      -0.43270083      -1.94869769       6.59232600
Si       5.07783660       2.44346205       4.12675904
Si       2.97199928       0.15209611       6.94686700
Si       2.63057755       2.20449299       0.93572207
Si       1.28780306      -1.28983382       8.05221379
Si       4.31477377       3.64642292      -0.16962471
Si       0.85832208       2.75136454      -0.96859128
Si       1.94296634      -1.57306999       4.90988581
14
Lattice="5.1281702735752654 0.7570715879752724 -1.012808515339327 1.7287358336885026 5.501924196227466 -1.9377585306708804 -1.2603719865828278 -3.901655192199689 10.799382940092093" Properties=species:S:1:pos:R:3 unique_starting_index=100 config_type=initial n_minim_iter=9 stress="0.0004282082986799801 0.00020738806967936696 3.3067559988987595e-05 0.00020738806967936696 -7.990751281137188e-05 0.00022933638799957088 3.3067559988987595e-05 0.00022933638799957088 -0.0001567417688123945" pbc="T T T"
Si       5.94035436       6.00606739      -2.05952129
Si       1.42664631       0.19581807       1.55297265
Si       6.05420750       4.30728225       1.27112365
Si       0.51619397      -0.08567178       3.74422088
Si      -0.34382024      -3.64872680       9.90833718
Si       4.16988781       2.16152252       6.29584325
Si      -0.45767338      -1.94994166       6.57769224
Si       5.08034015       2.44301237       4.10459502
Si       2.96054521       0.15341755       6.92506532
Si       2.63598891       2.20392304       0.92375058
Si       1.26373174      -1.28848773       8.02503610
Si       4.33280238       3.64582832      -0.17622021
Si       0.86436792       2.75096210      -0.96887927
Si       1.93389914      -1.57229180       4.89328721
14
Lattice="5.128004243679208 0.7503103385166194 -1.0233688952140962 1.7232176331788884 5.502056264963286 -1.9488330509101295 -1.2738706312117871 -3.915100890174733 10.807793753029618" Properties=species:S:1:pos:R:3 unique_starting_index=100 config_type=initial n_minim_iter=10 stress="-0.0001451620664571281 -0.0008847357150932552 -0.0008515096867191353 -0.0008847357150932552 -8.138080582851336e-05 -0.0006940607465832715 -0.0008515096867191353 -0.0006940607465832715 -7.207349825240838e-05" pbc="T T T"
Si       5.93692189       5.99862455      -2.07891423
Si       1.42760282       0.18457979       1.55062332
Si       6.05198606       4.29841335       1.25474761
Si       0.50863199      -0.08794896       3.74267407
Si      -0.35957065      -3.66135884       9.91450603
Si       4.14974842       2.15268593       6.28496849
Si      -0.47463481      -1.96114763       6.58084420
Si       5.06871926       2.42521467       4.09291773
Si       2.94737852       0.14141863       6.92466266
Si       2.62997272       2.19584708       0.91092914
Si       1.24481568      -1.29990034       8.01759479
Si       4.33253556       3.63716605      -0.18200299
Si       0.86160882       2.75102813      -0.97441653
Si       1.92706681      -1.58239528       4.89221243
14
Lattice="5.133907482701612 0.7676144441847038 -1.0229411240447261 1.7472855865615005 5.5208159575542375 -1.9176037096563274 -1.3022349458600158 -3.880513336929396 10.761365985168505" Properties=species:S:1:pos:R:3 unique_starting_index=100 config_type=initial n_minim_iter=11 stress="0.0003997402577331841 0.00032379420266580446 -0.0009745702254833114 0.00032379420266580446 0.0006909752701978418 0.00019996158780919687 -0.0009745702254833114 0.00019996158780919687 -0.0011691961184623729" pbc="T T T"
Si       5.97414974       6.03123905      -2.04660997
Si       1.44178519       0.18123901       1.54538852
Si       6.09654472       4.35296446       1.26894080
Si       0.50192557      -0.05270785       3.73134914
Si      -0.39519162      -3.62332199       9.86743112
Si       4.13717293       2.22667806       6.27543263
Si      -0.51758660      -1.94504740       6.55188035
Si       5.07703255       2.46062492       4.08947201
Si       2.94256669       0.19958543       6.92115904
Si       2.63639143       2.20833164       0.89966211
Si       1.21350232      -1.25164133       7.96810954
Si       4.36545580       3.65955839      -0.14728839
Si       0.87364279       2.76040798      -0.95880185
Si       1.91583627      -1.55644945       4.86921243
14
Lattice="5.122918338262356 0.7660833645659962 -1.018710043816362 1.740163059276877 5.5203557794086775 -1.9187895626428353 -1.2860643956095221 -3.8799361670159955 10.777899128687674" Properties=species:S:1:pos:R:3 unique_starting_index=100 config_type=initial n_minim_iter=12 stress="-3.7075432857564062e-06 6.292244991797251e-05 -0.00017953480805627106 6.292244991797251e-05 0.0001809837823161012 9.73221109848364e-05 -0.00017953480805627106 9.73221109848364e-05 -0.0001797236552254976" pbc="T T T"
Si       5.95803231       6.02841893      -2.03888174
Si       1.44068216       0.18266458       1.54839462
Si       6.08751277       4.35174249       1.27676399
Si       0.50425518      -0.05133366       3.73733043
Si      -0.38101531      -3.62191595       9.87928126
Si       4.13633484       2.22383840       6.29200491
Si      -0.51049577      -1.94523951       6.56363553
Si       5.07276182       2.45783663       4.10306910
Si       2.94575647       0.20016870       6.93889130
Si       2.63126053       2.20633427       0.90150822
Si       1.22246177      -1.25219064       7.98419717
Si       4.35455523       3.65869362      -0.14379764
Si       0.87008153       2.76017789      -0.95939478
Si       1.91842697      -1.55692640       4.87959454
14
Lattice="5.113207119508383 0.7700426365256842 -1.0118339125196698 1.7390699519432393 5.522235752379169 -1.9148013339886178 -1.270224528673581 -3.8729327972750536 10.792214771304568" Properties=species:S:1:pos:R:3 unique_starting_index=100 config_type=initial n_minim_iter=13 stress="-0.00042874760858554415 -0.00028013939012354306 0.0009209909922723936 -0.00028013939012354306 -0.0004984775038641805 -2.2639672860776192e-05 0.0009209909922723936 -2.2639672860776192e-05 0.0010643833540379753" pbc="T T T"
Si       5.95207082       6.02983770      -2.02201633
Si       1.44616512       0.18526579       1.55010785
Si       6.09590120       4.36165565       1.28879591
Si       0.50942027      -0.04315483       3.74078730
Si      -0.37001828      -3.61049210       9.88759585
Si       4.13588742       2.23407980       6.31547167
Si      -0.51384866      -1.94231006       6.57678361
Si       5.07263228       2.46250042       4.12479222
Si       2.95396066       0.21534746       6.96649742
Si       2.62809188       2.20399813       0.89908211
Si       1.22450253      -1.24039284       7.99188286
Si       4.35755002       3.65973844      -0.12630334
Si       0.86953498       2.76111788      -0.95740067
Si       1.92149130      -1.55144508       4.89019043
14
Lattice="5.1321427030836215 0.7816416563310982 -1.0194356810900669 1.760276417397642 5.52781110286944 -1.9135123439641388 -1.3052062769254247 -3.8792139824928396 10.762327259507193" Properties=species:S:1:pos:R:3 unique_starting_index=100 config_type=initial n_minim_iter=14 stress="-4.069109312052632e-06 0.00011839683458097667 5.7660187633018045e-06 0.00011839683458097667 -0.00011733639681922851 -2.43090870658253e-05 5.7660187633018045e-06 -2.43090870658253e-05 -0.00014366496966018263" pbc="T T T"
Si       5.98852775       6.03901641      -2.02296627
Si       1.45063515       0.18955796       1.53802490
Si       6.13250887       4.37502168       1.26671664
Si       0.50558079      -0.04195368       3.71967443
Si      -0.40131491      -3.60877763       9.85234550
Si       4.13657769       2.24068082       6.29135433
Si      -0.54529603      -1.94478290       6.56266259
Si       5.08163205       2.47219246       4.10970481
Si       2.95016781       0.22421523       6.94977578
Si       2.63704503       2.20602354       0.87960345
Si       1.20143892      -1.23727315       7.95747174
Si       4.38577392       3.66751193      -0.12809251
Si       0.88013821       2.76390555      -0.95675617
Si       1.91346821      -1.54878616       4.87144579
14
Lattice="5.133935171061005 0.782273509082917 -1.018446837330376 1.7617877704910994 5.528306624040772 -1.9101197628471902 -1.3047608427013873 -3.8730747485948607 10.76315710186045" Properties=species:S:1:pos:R:3 unique_starting_index=100 config_type=initial n_minim_iter=15 stress="9.183445370374321e-05 -5.715578339293512e-05 -0.0001696471447647145 -5.715578339293512e-05 0.0002202140202082697 -4.4209890050220884e-06 -0.0001696471447647145 -4.4209890050220884e-06 7.656818002998566e-05" pbc="T T T"
Si       5.99445948       6.03994851      -2.02269549
Si       1.45441810       0.18887476       1.53754283
Si       6.13969518       4.37770539       1.27178811
Si       0.50776852      -0.03905605       3.72152079
Si      -0.40349738      -3.60244313       9.85728599
Si       4.13654400       2.24863063       6.29704767
Si      -0.54873308      -1.94020001       6.56280239
Si       5.08319358       2.47656144       4.11306971
Si       2.95163655       0.23041532       6.95412387
Si       2.63932555       2.20709006       0.88046663
Si       1.19701216      -1.22911975       7.95331248
Si       4.39394993       3.66662514      -0.11872198
Si       0.88089389       2.76415331      -0.95505988
Si       1.91458716      -1.54540062       4.87235513
14
Lattice="5.132479838009155 0.7799795358476173 -1.015473989380695 1.7579065619660836 5.526945104841788 -1.90997334599073 -1.2963739569058244 -3.873803535567936 10.76232504844891" Properties=species:S:1:pos:R:3 unique_starting_index=100 config_type=initial n_minim_iter=16 stress="-7.77392639662847e-05 -0.0001625232053124632 -1.752995217757665e-05 -0.0001625232053124632 -9.430432825712951e-05 -1.3929613214578054e-05 -1.752995217757665e-05 -1.3929613214578054e-05 -0.0002568316007662972" pbc="T T T"
Si       5.99016325       6.03438911      -2.01845011
Si       1.45138883       0.19250047       1.53166949
Si       6.13926480       4.36805301       1.27538313
Si       0.50987684      -0.04164540       3.72116924
Si      -0.39615081      -3.60126800       9.85532782
Si       4.14262361       2.24062063       6.30520823
Si      -0.54525236      -1.93493191       6.56149459
Si       5.08413560       2.47476651       4.11570847
Si       2.95160651       0.22260968       6.95974086
Si       2.64240593       2.21051143       0.87713685
Si       1.20728386      -1.23473915       7.95584574
Si       4.38672858       3.66786026      -0.11896803
Si       0.87895328       2.76347255      -0.95498667
Si       1.91805294      -1.54691200       4.87342553
14
Lattice="5.13246256050101 0.782484453595729 -1.0149753664073915 1.7605697756693979 5.529181061556721 -1.9075777539810583 -1.2976754358091438 -3.8709169949517044 10.762285540063026" Properties=species:S:1:pos:R:3 unique_starting_index=100 config_type=initial n_minim_iter=17 stress="-8.718439015188146e-06 -9.779926908105314e-06 -1.2792783403275384e-05 -9.779926908105314e-06 -1.5140001082120688e-05 -1.6406599484380497e-05 -1.2792783403275384e-05 -1.6406599484380497e-05 -1.892241482602886e-05" pbc="T T T"
Si       5.99435852       6.03778339      -2.01470335
Si       1.45348883       0.19219275       1.53119342
Si       6.14603791       4.37351886       1.27781356
Si       0.51011390      -0.03806025       3.72082062
Si      -0.39900162      -3.59703486       9.85443577
Si       4.14186807       2.24855577       6.30853900
Si      -0.55068101      -1.93277034       6.56191886
Si       5.08524300       2.47880877       4.11891180
Si       2.95161942       0.22840116       6.96501292
Si       2.64373748       2.21234736       0.87471950
Si       1.20427387      -1.23062327       7.95322062
Si       4.39108303       3.67137179      -0.11348820
Si       0.88028489       2.76459053      -0.95378888
Si       1.91739356      -1.54421627       4.87365509
14
Lattice="5.132000283373625 0.7848584978518965 -1.0125373469712236 1.7626590229038424 5.531737772328954 -1.9026544401027776 -1.2953453190794355 -3.864640355133444 10.761217686124038" Properties=species:S:1:pos:R:3 unique_starting_index=100 config_type=initial n_minim_iter=18 stress="6.205892310973711e-05 0.00020779470490861363 6.2994451080956986e-06 0.00020779470490861363 6.997679515105799e-05 -1.8334527033889937e-05 6.2994451080956986e-06 -1.8334527033889937e-05 0.00028164157666729926" pbc="T T T"
Si       5.99841970       6.04109025      -2.00655488
Si       1.45700726       0.19287953       1.53103235
Si       6.15483423       4.37835654       1.28336380
Si       0.51161472      -0.03259827       3.72098181
Si      -0.39910571      -3.58913433       9.85258077
Si       4.14230673       2.25907638       6.31499355
Si      -0.55552024      -1.92640063       6.56266210
Si       5.08769927       2.48455419       4.12504409
Si       2.95288679       0.23612160       6.97405411
Si       2.64642720       2.21583431       0.87197179
Si       1.20255063      -1.22605380       7.95009830
Si       4.39676335       3.67800971      -0.10407240
Si       0.88132951       2.76586889      -0.95132722
Si       1.91832748      -1.53989093       4.87434017
14
Lattice="5.1310104044449325 0.7793328956879011 -1.0097675656758571 1.7560159385052052 5.528855625526073 -1.9011882673976266 -1.285986379872318 -3.8622939594775065 10.757727460886747" Properties=species:S:1:pos:R:3 unique_starting_index=100 config_type=initial n_minim_iter=19 stress="-1.8253792853475233e-06 -1.1044667601832846e-05 5.2215111987189555e-05 -1.1044667601832846e-05 -3.4784244881887816e-05 3.242428822109356e-05 5.2215111987189555e-05 3.242428822109356e-05 -2.666094719426897e-05" pbc="T T T"
Si       5.98987530       6.03452254      -2.00317622
Si       1.45627571       0.19597166       1.53237802
Si       6.14716348       4.36697907       1.28504310
Si       0.51307090      -0.03455025       3.72215280
Si      -0.38883533      -3.58862798       9.84994784
Si       4.14476426       2.24992290       6.31439360
Si      -0.54612351      -1.92108451       6.56172853
Si       5.08796906       2.48044481       4.12461883
Si       2.95449093       0.22993985       6.97246458
Si       2.64654903       2.21595471       0.87430705
Si       1.20986123      -1.23311093       7.95290577
Si       4.39117873       3.67900549      -0.10613414
Si       0.87800797       2.76442781      -0.95059413
Si       1.92251201      -1.54148053       4.87397995
14
Lattice="5.13220313375945 0.779741646350961 -1.0114546067334766 1.7572238901886406 5.530484180827718 -1.9014228497009664 -1.2903297048202769 -3.863410693809338 10.756200419693542" Properties=species:S:1:pos:R:3 unique_starting_index=100 config_type=initial n_minim_iter=20 stress="-1.698955501471496e-05 -0.00011120784237160257 -0.00010643654211511027 -0.00011120784237160257 6.718452190800129e-05 -5.52525220592993e-06 -0.00010643654211511027 -5.52525220592993e-06 -0.00012691264220044318" pbc="T T T"
Si       5.99341040       6.03628140      -2.00588962
Si       1.45840051       0.19734873       1.53269467
Si       6.15249447       4.36804548       1.28314202
Si       0.51207483      -0.03455161       3.72136677
Si      -0.39431309      -3.58946626       9.84921258
Si       4.14069681       2.24946640       6.31062830
Si      -0.55339715      -1.92123035       6.56018095
Si       5.08702248       2.48136674       4.12195619
Si       2.95152680       0.23038737       6.97286481
Si       2.64757052       2.21642776       0.87045815
Si       1.20312382      -1.23496285       7.94904074
Si       4.39597350       3.68177798      -0.10571777
Si       0.87861195       2.76524209      -0.95071142
Si       1.92093671      -1.54183452       4.87237291
14
Lattice="5.131334525750634 0.7799972036778167 -1.0122877502772138 1.757070720888759 5.5314799297764 -1.9029908561614852 -1.2911743571032193 -3.8659680558822993 10.758847817124536" Properties=species:S:1:pos:R:3 unique_starting_index=100 config_type=initial n_minim_iter=21 stress="-4.164422513698362e-06 -6.356638083301052e-05 -6.407925162865496e-05 -6.356638083301052e-05 5.626833737173398e-05 -8.748108108313087e-06 -6.407925162865496e-05 -8.748108108313087e-06 -5.739164394948116e-05" pbc="T T T"
Si       5.99295098       6.03764595      -2.00816355
Si       1.45834396       0.19965181       1.53392753
Si       6.15310447       4.36757868       1.28259773
Si       0.51148674      -0.03593097       3.72226948
Si      -0.39572009      -3.59213687       9.85173276
Si       4.13888693       2.24585727       6.30964168
Si      -0.55587358      -1.92206960       6.56097148
Si       5.08574415       2.48144004       4.12129974
Si       2.94905911       0.22802579       6.97504705
Si       2.64817178       2.21748329       0.86852216
Si       1.20174149      -1.23930802       7.95173100
Si       4.39548940       3.68481710      -0.10816179
Si       0.87853536       2.76573996      -0.95149543
Si       1.92008008      -1.54298543       4.87328003
