18
Lattice="6.711920000000003 -1.7401931496403365e-30 2.0803359172432719e-47 -3.3559600000000005 5.8126932281688495 -1.0401679586216308e-47 -1.6546160271784418e-31 1.2059560032763474e-61 8.89021" Properties=species:S:1:pos:R:3 unique_starting_index=28 config_type=initial n_minim_iter=1 pbc="T T T"
Si      -1.10143178       3.79655186       1.28458289
Si       0.48266624       4.86828520       1.28458289
Si       0.61876553       2.96054940       1.28458289
Si      -0.48266625       4.86828520       5.72968789
Si      -0.61876553       2.96054940       5.72968789
Si       1.10143178       3.79655186       5.72968789
Si      -1.92530251       4.78621287       4.34360014
Si       1.75167318       5.08694768       4.34360014
Si       0.17362932       1.75222591       4.34360014
Si      -1.75167319       5.08694768       8.78870514
Si      -0.17362932       1.75222591       8.78870514
Si       1.92530251       4.78621287       8.78870514
Si       5.03806783       1.27161500       0.63981419
Si       1.93817697       0.81379100       0.63981419
Si       3.09163519       3.72728723       0.63981419
Si       4.77374302       0.81379100       5.08491919
Si       3.62028481       3.72728723       5.08491919
Si       1.67385217       1.27161500       5.08491919
18
Lattice="6.798623446830342 -2.901158808566178e-17 3.990395977386708e-33 -3.39931172341517 5.887780615719597 3.946553372751883e-33 -1.6231356654512255e-31 9.087597658697504e-33 8.962200516506947" Properties=species:S:1:pos:R:3 unique_starting_index=28 config_type=initial n_minim_iter=2 pbc="T T T"
Si      -1.11659726       3.84532349       1.29534245
Si       0.48913473       4.93212047       1.29534245
Si       0.62746253       2.99811728       1.29534245
Si      -0.48913473       4.93212047       5.77644271
Si      -0.62746253       2.99811728       5.77644271
Si       1.11659726       3.84532349       5.77644271
Si      -1.95016170       4.84813417       4.37827589
Si       1.77437648       5.15260310       4.37827589
Si       0.17578521       1.77482396       4.37827589
Si      -1.77437648       5.15260310       8.85937615
Si      -0.17578522       1.77482396       8.85937615
Si       1.95016169       4.84813417       8.85937615
Si       5.10269256       1.28795086       0.64513543
Si       1.96336361       0.82474380       0.64513543
Si       3.13187900       3.77508595       0.64513543
Si       4.83525984       0.82474380       5.12623568
Si       3.66674444       3.77508595       5.12623568
Si       1.69593089       1.28795086       5.12623568
18
Lattice="7.686298702744866 -7.833101832493094e-17 4.4025476102969604e-32 -3.8431493513724315 6.656529937652428 4.268620552932241e-32 -1.3116105340739314e-31 9.897218517116968e-32 9.67143781318585" Properties=species:S:1:pos:R:3 unique_starting_index=28 config_type=initial n_minim_iter=3 pbc="T T T"
Si      -1.27176355       4.34464897       1.40129644
Si       0.55530880       5.58558499       1.40129644
Si       0.71645474       3.38282591       1.40129644
Si      -0.55530880       5.58558499       6.23701535
Si      -0.71645475       3.38282591       6.23701535
Si       1.27176355       4.34464897       6.23701535
Si      -2.20242472       5.48427230       4.71850377
Si       2.00758214       5.82174954       4.71850377
Si       0.19484257       2.00703803       4.71850377
Si      -2.00758215       5.82174954       9.55422267
Si      -0.19484258       2.00703803       9.55422267
Si       2.20242471       5.48427230       9.55422267
Si       5.76148261       1.45418470       0.69899770
Si       2.22176893       0.93984728       0.69899770
Si       3.54619650       4.26249796       0.69899770
Si       5.46452976       0.93984728       5.53471661
Si       4.14010220       4.26249796       5.53471661
Si       1.92481608       1.45418470       5.53471661
18
Lattice="7.810486081358145 -2.9467912380222205e-16 5.996631235356988e-32 -3.9052430406790717 6.764079362360924 6.569801421476325e-32 -1.1305619001068147e-31 1.4648696919644709e-31 9.794525617825514" Properties=species:S:1:pos:R:3 unique_starting_index=28 config_type=initial n_minim_iter=4 pbc="T T T"
Si      -1.29516788       4.41298656       1.41981847
Si       0.56409936       5.67923437       1.41981847
Si       0.73106851       3.43593780       1.41981847
Si      -0.56409937       5.67923437       6.31708128
Si      -0.73106852       3.43593780       6.31708128
Si       1.29516788       4.41298656       6.31708128
Si      -2.23411560       5.57784345       4.77560599
Si       2.04236888       5.90995851       4.77560599
Si       0.19174672       2.04035678       4.77560599
Si      -2.04236888       5.90995851       9.67286879
Si      -0.19174672       2.04035678       9.67286879
Si       2.23411560       5.57784345       9.67286879
Si       5.84875954       1.47538485       0.71015588
Si       2.25858402       0.96121259       0.71015588
Si       3.60838555       4.32748192       0.71015588
Si       5.55190205       0.96121259       5.60741868
Si       4.20210053       4.32748192       5.60741868
Si       1.96172653       1.47538485       5.60741868
18
Lattice="7.8845008194069175 -6.422179745538675e-16 7.632893407234421e-32 -3.942250409703458 6.828178005765613 9.117016688632678e-32 -9.327418865423413e-32 1.9779449939019363e-31 9.906996368100382" Properties=species:S:1:pos:R:3 unique_starting_index=28 config_type=initial n_minim_iter=5 pbc="T T T"
Si      -1.31112748       4.45193071       1.43696112
Si       0.56879842       5.73768235       1.43696112
Si       0.74232905       3.46674295       1.43696112
Si      -0.56879842       5.73768235       6.39045930
Si      -0.74232906       3.46674295       6.39045930
Si       1.31112747       4.45193071       6.39045930
Si      -2.24912647       5.63848686       4.82650598
Si       2.06538568       5.95673523       4.82650598
Si       0.18374078       2.06113393       4.82650598
Si      -2.06538568       5.95673523       9.78000417
Si      -0.18374079       2.06113393       9.78000417
Si       2.24912646       5.63848686       9.78000417
Si       5.89577015       1.48547280       0.72141016
Si       2.28082251       0.97955488       0.72141016
Si       3.65015856       4.36315033       0.72141016
Si       5.60367830       0.97955488       5.67490835
Si       4.23434226       4.36315033       5.67490835
Si       1.98873066       1.48547280       5.67490835
18
Lattice="7.858509640726102 -3.607230364011521e-16 9.048362196040475e-32 -3.92925482036305 6.805668984753726 1.1620934790949305e-31 -7.443852023441452e-32 2.455583431011892e-31 9.97731960969983" Properties=species:S:1:pos:R:3 unique_starting_index=28 config_type=initial n_minim_iter=6 pbc="T T T"
Si      -1.31029709       4.43410389       1.44788498
Si       0.56594033       5.72336761       1.44788498
Si       0.74435675       3.45386648       1.44788498
Si      -0.56594034       5.72336761       6.43654478
Si      -0.74435676       3.45386648       6.43654478
Si       1.31029709       4.43410389       6.43654478
Si      -2.23468825       5.62867387       4.85686812
Si       2.06266386       5.92662885       4.85686812
Si       0.17202439       2.05603526       4.85686812
Si      -2.06266387       5.92662885       9.84552793
Si      -0.17202439       2.05603526       9.84552793
Si       2.23468825       5.62867387       9.84552793
Si       5.86742806       1.47592233       0.72970521
Si       2.27372702       0.98636607       0.72970521
Si       3.64660938       4.34338059       0.72970521
Si       5.58478262       0.98636607       5.71836501
Si       4.21190026       4.34338059       5.71836501
Si       1.99108158       1.47592233       5.71836501
18
Lattice="7.728183814425851 -4.7573979031957155e-17 1.0641135787115235e-31 -3.8640919072129245 6.6928035084085105 1.4933087950292286e-31 -5.258771987101291e-32 3.0241333426809704e-31 10.155513175857054" Properties=species:S:1:pos:R:3 unique_starting_index=28 config_type=initial n_minim_iter=7 pbc="T T T"
Si      -1.29731495       4.35267982       1.47547697
Si       0.55409686       5.63997131       1.47547697
Si       0.74321809       3.39295590       1.47547697
Si      -0.55409687       5.63997131       6.55323356
Si      -0.74321809       3.39295590       6.55323356
Si       1.29731495       4.35267982       6.55323356
Si      -2.18144662       5.55604078       4.93422297
Si       2.03830386       5.80397131       4.93422297
Si       0.14314275       2.02559493       4.93422297
Si      -2.03830387       5.80397131      10.01197956
Si      -0.14314276       2.02559493      10.01197956
Si       2.18144662       5.55604078      10.01197956
Si       5.74942012       1.44056996       0.75039283
Si       2.23695202       0.99337465       0.75039283
Si       3.60590357       4.25885891       0.75039283
Si       5.49123179       0.99337465       5.82814941
Si       4.12228024       4.25885891       5.82814941
Si       1.97876368       1.44056996       5.82814941
18
Lattice="7.387038968634644 2.572005828393801e-17 1.382628668120704e-31 -3.693519484317321 6.397363405583202 2.2331547343351707e-31 -1.2048116696062887e-32 4.157934187283957e-31 10.903233641168855" Properties=species:S:1:pos:R:3 unique_starting_index=28 config_type=initial n_minim_iter=8 pbc="T T T"
Si      -1.26594400       4.14038699       1.58853306
Si       0.52513283       5.42350958       1.58853306
Si       0.74081117       3.23083025       1.58853306
Si      -0.52513283       5.42350958       7.04014988
Si      -0.74081117       3.23083025       7.04014988
Si       1.26594400       4.14038699       7.04014988
Si      -2.05310891       5.35489525       5.27370787
Si       1.97051029       5.49796025       5.27370787
Si       0.08259862       1.94187131       5.27370787
Si      -1.97051030       5.49796025      10.72532469
Si      -0.08259862       1.94187131      10.72532469
Si       2.05310891       5.35489525      10.72532469
Si       5.45108203       1.35580629       0.82502835
Si       2.14214116       0.99868475       0.82502835
Si       3.48733526       4.04287237       0.82502835
Si       5.24489781       0.99868475       6.27664517
Si       3.89970370       4.04287237       6.27664517
Si       1.93595694       1.35580629       6.27664517
18
Lattice="7.013015198657701 6.263746889966493e-17 1.4731837850163117e-31 -3.5065075993288497 6.0734493191639425 2.528633054617901e-31 8.736096602564945e-34 4.49155908504776e-31 11.452305316000935" Properties=species:S:1:pos:R:3 unique_starting_index=28 config_type=initial n_minim_iter=9 pbc="T T T"
Si      -1.27204522       3.90226167       1.66841935
Si       0.50897275       5.22394196       1.66841935
Si       0.76307247       3.02069501       1.66841935
Si      -0.50897275       5.22394196       7.39457200
Si      -0.76307247       3.02069501       7.39457200
Si       1.27204522       3.90226167       7.39457200
Si      -1.91296792       5.13118601       5.51028242
Si       1.89371379       5.16453513       5.51028242
Si       0.01925412       1.85117750       5.51028242
Si      -1.89371380       5.16453513      11.23643508
Si      -0.01925413       1.85117750      11.23643508
Si       1.91296792       5.13118601      11.23643508
Si       5.12182917       1.26999187       0.89568769
Si       2.04543823       1.00281921       0.89568769
Si       3.35225539       3.80063825       0.89568769
Si       4.96757697       1.00281921       6.62184035
Si       3.66075980       3.80063825       6.62184035
Si       1.89118603       1.26999187       6.62184035
18
Lattice="7.473932937596486 4.945187217323486e-16 1.3767471303869583e-31 -3.736966468798242 6.472615790139814 2.1189967151133543e-31 -2.24720449009104e-32 3.8000290019212316e-31 11.807637297960012" Properties=species:S:1:pos:R:3 unique_starting_index=28 config_type=initial n_minim_iter=10 pbc="T T T"
Si      -1.37232498       4.15473903       1.72500099
Si       0.54730556       5.58371457       1.72500099
Si       0.82501941       3.20677798       1.72500099
Si      -0.54730557       5.58371457       7.62881964
Si      -0.82501941       3.20677798       7.62881964
Si       1.37232497       4.15473903       7.62881964
Si      -2.03374665       5.47277559       5.67129247
Si       2.01946954       5.49750426       5.67129247
Si       0.01427710       1.97495174       5.67129247
Si      -2.01946955       5.49750426      11.57511112
Si      -0.01427710       1.97495174      11.57511112
Si       2.03374664       5.47277559      11.57511112
Si       5.45055688       1.35352876       0.92862100
Si       2.18387831       1.07553069       0.92862100
Si       3.57646421       4.04355635       0.92862100
Si       5.29005462       1.07553069       6.83243965
Si       3.89746873       4.04355635       6.83243965
Si       2.02337605       1.35352876       6.83243965
18
Lattice="7.115043770425383 8.302508188362975e-16 9.883436028356637e-32 -3.5575218852126897 6.1618086542266 1.4273576385774817e-31 -6.520553938456706e-32 2.4589707095193145e-31 11.579798346503324" Properties=species:S:1:pos:R:3 unique_starting_index=28 config_type=initial n_minim_iter=11 pbc="T T T"
Si      -1.30714400       3.95471249       1.69046794
Si       0.52093159       5.31647232       1.69046794
Si       0.78621240       3.05243251       1.69046794
Si      -0.52093159       5.31647232       7.48036712
Si      -0.78621241       3.05243251       7.48036712
Si       1.30714399       3.95471249       7.48036712
Si      -1.93565000       5.21117657       5.56373330
Si       1.92331440       5.23254244       5.56373330
Si       0.01233559       1.87989830       5.56373330
Si      -1.92331441       5.23254244      11.35363247
Si      -0.01233559       1.87989830      11.35363247
Si       1.93564999       5.21117657      11.35363247
Si       5.18850629       1.28771761       0.91007653
Si       2.07846490       1.02457159       0.91007653
Si       3.40559446       3.84951945       0.91007653
Si       5.03657887       1.02457159       6.69997570
Si       3.70944931       3.84951945       6.69997570
Si       1.92653747       1.28771761       6.69997570
18
Lattice="7.063856082490475 7.794860214490864e-16 3.4054559989009977e-32 -3.5319280412452354 6.117478816113979 1.2203243291371967e-32 -1.4937620222845328e-31 -1.760479627764107e-33 11.571217261609917" Properties=species:S:1:pos:R:3 unique_starting_index=28 config_type=initial n_minim_iter=12 pbc="T T T"
Si      -1.30070781       3.92538865       1.68987877
Si       0.51791215       5.28123050       1.68987877
Si       0.78279565       3.02833849       1.68987877
Si      -0.51791215       5.28123050       7.47548740
Si      -0.78279566       3.02833849       7.47548740
Si       1.30070780       3.92538865       7.47548740
Si      -1.92072599       5.17480601       5.55825921
Si       1.90994842       5.19347331       5.55825921
Si       0.01077756       1.86667831       5.55825921
Si      -1.90994842       5.19347331      11.34386784
Si      -0.01077757       1.86667831      11.34386784
Si       1.92072598       5.17480601      11.34386784
Si       5.14966159       1.27846939       0.91008974
Si       2.06428421       1.01850637       0.91008974
Si       3.38183832       3.82050306       0.91008974
Si       4.99957187       1.01850637       6.69569837
Si       3.68201776       3.82050306       6.69569837
Si       1.91419449       1.27846939       6.69569837
18
Lattice="7.068972760923129 7.737571351486732e-16 -8.548406994929829e-32 -3.5344863804615625 6.121909989619655 -2.2964714905603528e-31 -3.0767756695967776e-31 -4.625171447640165e-31 11.591117112822928" Properties=species:S:1:pos:R:3 unique_starting_index=28 config_type=initial n_minim_iter=13 pbc="T T T"
Si      -1.30414556       3.92755016       1.69355555
Si       0.51894461       5.28755809       1.69355555
Si       0.78520094       3.02871173       1.69355555
Si      -0.51894461       5.28755809       7.48911410
Si      -0.78520095       3.02871173       7.48911410
Si       1.30414556       3.92755016       7.48911410
Si      -1.92131152       5.17936053       5.56637501
Si       1.91162716       5.19613431       5.56637501
Si       0.00968435       1.86832515       5.56637501
Si      -1.91162717       5.19613431      11.36193356
Si      -0.00968435       1.86832515      11.36193356
Si       1.92131151       5.17936053      11.36193356
Si       5.15213629       1.27949568       0.91232745
Si       2.06649399       1.02028124       0.91232745
Si       3.38482885       3.82213308       0.91232745
Si       5.00247876       1.02028124       6.70788601
Si       3.68414391       3.82213308       6.70788601
Si       1.91683646       1.27949568       6.70788601
18
Lattice="7.061228491116542 7.373148594856028e-16 -3.087197584517151e-31 -3.5306142455582683 6.115203255233389 -6.783664150981986e-31 -6.021778155680758e-31 -1.316458485300817e-30 11.604253728198966" Properties=species:S:1:pos:R:3 unique_starting_index=28 config_type=initial n_minim_iter=14 pbc="T T T"
Si      -1.30543646       3.92250032       1.69630817
Si       0.51908890       5.28449423       1.69630817
Si       0.78634755       3.02341197       1.69630817
Si      -0.51908890       5.28449423       7.49843503
Si      -0.78634756       3.02341197       7.49843503
Si       1.30543645       3.92250032       7.49843503
Si      -1.91831844       5.17459558       5.57114513
Si       1.90987620       5.18921796       5.57114513
Si       0.00844223       1.86659297       5.57114513
Si      -1.90987620       5.18921796      11.37327200
Si      -0.00844224       1.86659297      11.37327200
Si       1.91831843       5.17459558      11.37327200
Si       5.14511495       1.27821791       0.91406661
Si       2.06502595       1.02029405       0.91406661
Si       3.38170184       3.81669130       0.91406661
Si       4.99620254       1.02029405       6.71619348
Si       3.67952665       3.81669130       6.71619348
Si       1.91611354       1.27821791       6.71619348
18
Lattice="6.932279115920943 7.899239858098781e-16 -7.654571636317619e-31 -3.466139557960469 6.003529820511869 -1.589318880853376e-30 -1.1664842278871562e-30 -2.9470459956181406e-30 11.85486109496285" Properties=species:S:1:pos:R:3 unique_starting_index=28 config_type=initial n_minim_iter=15 pbc="T T T"
Si      -1.33224256       3.83713342       1.75004477
Si       0.52303674       5.23871901       1.75004477
Si       0.80920582       2.93120721       1.75004477
Si      -0.52303674       5.23871901       7.67747531
Si      -0.80920582       2.93120721       7.67747531
Si       1.33224256       3.83713342       7.67747531
Si      -1.86674614       5.09689711       5.66071293
Si       1.88127589       5.07173085       5.66071293
Si      -0.01452975       1.83843168       5.66071293
Si      -1.88127590       5.07173085      11.58814348
Si       0.01452975       1.83843168      11.58814348
Si       1.86674614       5.09689711      11.58814348
Si       5.02545665       1.25779985       0.94745166
Si       2.04269785       1.02245677       0.94745166
Si       3.33026417       3.72327320       0.94745166
Si       4.88958126       1.02245677       6.87488221
Si       3.60201494       3.72327320       6.87488221
Si       1.90682246       1.25779985       6.87488221
