16
Lattice="7.79312786994896 1.361379239202716e-31 2.2878146158778906e-31 -1.3613792392027815e-31 7.79312786994896 2.224679778445641e-13 -1.4648331447955908e-31 -1.424409413860338e-13 4.989753945230056" Properties=species:S:1:pos:R:3 unique_starting_index=112 config_type=initial n_minim_iter=1 energy=-2604.4228487570767 free_energy=-2604.4228487570767 pbc="T T T"
Si      -0.00084193       5.60343275      -0.00255696
Si       7.79233161       2.19146406      -0.00255696
Si       2.18976050       0.00090731       4.98719699
Si       5.60172919       7.79398951       4.98719699
Si       3.89572201       6.08802800       4.99020447
Si       3.89576768       1.70686881       4.99020447
Si       6.08632444       3.89742557       0.00045052
Si       1.70516525       3.89747124       0.00045052
Si       6.70058257       1.09261068       3.09577708
Si       1.09090712       6.70228613       3.09577708
Si       6.70085836       6.70256192       1.88877812
Si       1.09063133       1.09233489       1.88877812
Si       2.80401864       2.80572220       1.89187043
Si       4.98747105       4.98917461       1.89187043
Si       2.80429443       4.98889882       3.09886939
Si       4.98719526       2.80599799       3.09886939
16
Lattice="7.792110638378201 1.3612015393157144e-31 2.2116030663005305e-31 -1.3612015393157782e-31 7.792110638378201 2.2244239377060359e-13 -1.44580406065314e-31 -1.42437726081784e-13 4.98971883133806" Properties=species:S:1:pos:R:3 unique_starting_index=112 config_type=initial n_minim_iter=2 stress="-4.044614214659173e-05 -1.1873231765119395e-16 9.234735817315086e-17 -1.1873231765119395e-16 -4.044614214659173e-05 1.026081757479454e-17 9.234735817315086e-17 1.026081757479454e-17 -0.00010905998568592368" pbc="T T T"
Si      -0.00084182       5.60272065      -0.00255694
Si       7.79131449       2.19115870      -0.00255694
Si       2.18945536       0.00090719       4.98716189
Si       5.60101731       7.79297216       4.98716189
Si       3.89521350       6.08721402       4.99016935
Si       3.89525917       1.70666533       4.99016935
Si       6.08551068       3.89691684       0.00045052
Si       1.70496199       3.89696251       0.00045052
Si       6.69968941       1.09248660       3.09577091
Si       1.09078326       6.70139275       3.09577091
Si       6.69996516       6.70166850       1.88874921
Si       1.09050751       1.09221085       1.88874921
Si       2.80363409       2.80533743       1.89184150
Si       4.98683858       4.98854192       1.89184150
Si       2.80390985       4.98826616       3.09886321
Si       4.98656282       2.80561319       3.09886321
16
Lattice="7.791039781979776 1.3610144717231477e-31 3.1667513507609003e-31 -1.361014471723239e-31 7.791039781979776 2.224159868209834e-13 -1.4416187361473878e-31 -1.4250127482155176e-13 4.992038280461486" Properties=species:S:1:pos:R:3 unique_starting_index=112 config_type=initial n_minim_iter=3 stress="-3.805855445850102e-05 -2.0444461596694528e-16 1.6121080828934753e-17 -2.0444461596694528e-16 -3.805855445840722e-05 2.28992625411005e-18 1.6121080828934753e-17 2.28992625411005e-18 0.0001202255720899061" pbc="T T T"
Si      -0.00084170       5.60212065      -0.00255813
Si       7.79024374       2.19068760      -0.00255813
Si       2.18898449       0.00090706       4.98948015
Si       5.60041755       7.79190119       4.98948015
Si       3.89467819       6.08620749       4.99248901
Si       3.89472385       1.70660076       4.99248901
Si       6.08450438       3.89638130       0.00045073
Si       1.70489765       3.89642695       0.00045073
Si       6.69863358       1.09247157       3.09732053
Si       1.09076846       6.70033668       3.09732053
Si       6.69890929       6.70061240       1.88951662
Si       1.09049275       1.09219585       1.88951662
Si       2.80311369       2.80481679       1.89261035
Si       4.98628835       4.98799146       1.89261035
Si       2.80338940       4.98771574       3.10041426
Si       4.98601264       2.80509251       3.10041426
16
Lattice="7.791121778968161 1.3610287957531637e-31 3.766208488022309e-31 -1.3610287957532723e-31 7.791121778968161 2.224203016448172e-13 -1.4503388884334989e-31 -1.4249129717379148e-13 4.99173304620938" Properties=species:S:1:pos:R:3 unique_starting_index=112 config_type=initial n_minim_iter=4 stress="-8.844429392453376e-06 -1.9052950387781512e-17 3.508307691596307e-17 -1.9052950387781512e-17 -8.844429392734773e-06 1.2063815221494352e-16 3.508307691596307e-17 1.2063815221494352e-16 1.670232214524351e-05" pbc="T T T"
Si      -0.00084171       5.60251663      -0.00255797
Si       7.79032573       2.19037364      -0.00255797
Si       2.18867051       0.00090707       4.98917507
Si       5.60081350       7.79198319       4.98917507
Si       3.89471918       6.08593453       4.99218375
Si       3.89476484       1.70695574       4.99218375
Si       6.08423140       3.89642230       0.00045070
Si       1.70525262       3.89646796       0.00045070
Si       6.69853766       1.09264948       3.09733600
Si       1.09094635       6.70024079       3.09733600
Si       6.69881338       6.70051651       1.88919623
Si       1.09067064       1.09237376       1.88919623
Si       2.80297678       2.80467990       1.89228978
Si       4.98650724       4.98821037       1.89228978
Si       2.80325249       4.98793465       3.10042954
Si       4.98623152       2.80495562       3.10042954
