10
Lattice="6.324920293290751 1.0263436270143213e-07 1.9649103481114567e-07 -2.873601790944752 5.634449906910084 -2.4553378960365464e-07 -1.7256592720833424 -2.817224615786346 5.39351078123334" Properties=species:S:1:pos:R:3 unique_starting_index=21 config_type=initial n_minim_iter=1 pbc="T T T"
Si       1.90254043      -1.16936685       5.34703766
Si       0.04140574      -0.02137462       3.16033626
Si      -0.30400249       2.48972352       1.55415569
Si       1.10000613       4.77120952       1.55970720
Si       1.35228301       0.83107200       2.57046311
Si      -1.20540017       2.95321499       4.67446396
Si       2.59441134       3.79642355       2.08076519
Si      -2.44752851      -0.01213656       5.16416188
Si       0.13049481      -0.07993275       5.24048068
Si      -0.44347645       4.14590451       2.54372517
10
Lattice="6.345430158096971 -0.00559579820033351 0.004232410744011435 -2.8879050556189534 5.648592426189111 -0.003404052266942747 -1.7251535959646604 -2.82291557841259 5.413094891328627" Properties=species:S:1:pos:R:3 unique_starting_index=21 config_type=initial n_minim_iter=2 pbc="T T T"
Si       1.91351108      -1.17552566       5.36835070
Si       0.04399686      -0.02193696       3.17158051
Si      -0.30607179       2.49407038       1.55950137
Si       1.10028268       4.78030921       1.56457071
Si       1.35742330       0.83078533       2.58083950
Si      -1.20881102       2.95940949       4.69034340
Si       2.60153436       3.80085383       2.08945752
Si      -2.45214526      -0.01113484       5.18081440
Si       0.13425106      -0.08144061       5.26030629
Si      -0.44739848       4.15448111       2.55237791
10
Lattice="6.754918922553241 -0.12419980761354718 0.09425275820139581 -3.1796045470721173 5.924717435634911 -0.07525970510804655 -1.7072843272842815 -2.93130898521663 5.806068691471765" Properties=species:S:1:pos:R:3 unique_starting_index=21 config_type=initial n_minim_iter=3 pbc="T T T"
Si       2.13870131      -1.30068360       5.79830711
Si       0.09902167      -0.03364566       3.39717145
Si      -0.34802174       2.57602996       1.66694499
Si       1.10138975       4.95303895       1.66131823
Si       1.46078139       0.82135371       2.79057186
Si      -1.27599828       3.07890878       5.00841786
Si       2.74253809       3.87898724       2.26604978
Si      -2.54034662       0.01061195       5.51252530
Si       0.21379023      -0.11277348       5.65910791
Si      -0.52871400       4.31912575       2.72588339
10
Lattice="7.0034611616757525 -0.06970253311295088 0.08376803192760197 -3.243976786737216 6.078484107282786 -0.016509670100613213 -1.8083100728134962 -2.983762993676922 5.941279330473491" Properties=species:S:1:pos:R:3 unique_starting_index=21 config_type=initial n_minim_iter=4 pbc="T T T"
Si       2.19788718      -1.26189501       5.94741357
Si       0.08596410      -0.00828680       3.49168790
Si      -0.33670624       2.65714100       1.74211928
Si       1.18224017       5.13654792       1.74230157
Si       1.52682838       0.89128210       2.86713822
Si      -1.30731241       3.19444418       5.17209903
Si       2.88270165       4.03474941       2.36316139
Si      -2.64763389       0.04145078       5.65783841
Si       0.20725414      -0.06256846       5.81563128
Si      -0.52480694       4.47727012       2.85342150
10
Lattice="7.118768333581768 0.01004877731384094 0.0513360209839724 -3.225319183199239 6.148446405398836 0.05195861254733178 -1.9029485219620086 -3.0071840850726823 5.961913076541867" Properties=species:S:1:pos:R:3 unique_starting_index=21 config_type=initial n_minim_iter=5 pbc="T T T"
Si       2.19359017      -1.19656943       5.97078791
Si       0.05877587       0.01466417       3.51767576
Si      -0.31607954       2.71050068       1.78084493
Si       1.25378706       5.25850056       1.78862032
Si       1.56025516       0.95633206       2.88126217
Si      -1.31812447       3.26592324       5.23424264
Si       2.97165013       4.15656657       2.40275221
Si      -2.72059587       0.06022269       5.70228801
Si       0.18078359      -0.01185891       5.85289293
Si      -0.49858861       4.57709649       2.91924326
10
Lattice="7.323966708619108 0.21689298625350295 -0.025456213917615947 -3.134283270577673 6.246516973723586 0.22209361544473863 -2.116549445328407 -3.0301788437520774 5.935508918165198" Properties=species:S:1:pos:R:3 unique_starting_index=21 config_type=initial n_minim_iter=6 pbc="T T T"
Si       2.16305833      -1.01022430       5.95547223
Si      -0.01123749       0.06860942       3.53784986
Si      -0.25585088       2.81305836       1.85676899
Si       1.42316449       5.50167000       1.88417328
Si       1.63152608       1.11259054       2.88134361
Si      -1.32460589       3.40251483       5.32202514
Si       3.16678375       4.41687936       2.47499841
Si      -2.86875665       0.10367338       5.73879919
Si       0.11641953       0.11691784       5.87184706
Si      -0.41931070       4.77172057       3.04664178
10
Lattice="7.2250045202178566 0.24459806962600833 -0.03470301666301044 -3.0646411543075653 6.101411368684125 0.2676605572566491 -2.109774520218257 -2.9318816322130203 5.800328424927692" Properties=species:S:1:pos:R:3 unique_starting_index=21 config_type=initial n_minim_iter=7 pbc="T T T"
Si       2.12820348      -0.91911547       5.83364865
Si      -0.03061272       0.08025264       3.47073412
Si      -0.23543838       2.76255590       1.84973602
Si       1.41676712       5.40822746       1.87670762
Si       1.62189498       1.12683920       2.82450368
Si      -1.30240026       3.34765070       5.23882020
Si       3.15016197       4.35390061       2.45860553
Si      -2.84473616       0.12920703       5.62121682
Si       0.10436943       0.15906601       5.75971088
Si      -0.40159007       4.69318590       3.02682934
10
Lattice="7.252619522981752 0.26745230817275006 -0.025200003217206987 -3.0568281646563373 6.040507210301015 0.30824324972656536 -2.119384918371617 -2.8698764916022657 5.761853536637699" Properties=species:S:1:pos:R:3 unique_starting_index=21 config_type=initial n_minim_iter=8 pbc="T T T"
Si       2.15081524      -0.84369902       5.82097523
Si      -0.04156202       0.09358038       3.46187304
Si      -0.21786236       2.74783750       1.87432870
Si       1.43298443       5.38589723       1.90411760
Si       1.64875834       1.15463104       2.82204201
Si      -1.29419172       3.33814546       5.24204025
Si       3.19193696       4.34425709       2.49333561
Si      -2.85563657       0.15970818       5.59216727
Si       0.10854384       0.20445297       5.75088657
Si      -0.39038747       4.67814942       3.05950804
10
Lattice="7.291773018649959 0.29708231447522 0.023796140238584996 -3.048221380524658 5.8422894989522085 0.3880336428084081 -2.1014840990931805 -2.6878957126020864 5.650977924363171" Properties=species:S:1:pos:R:3 unique_starting_index=21 config_type=initial n_minim_iter=9 pbc="T T T"
Si       2.22166875      -0.67219597       5.78345289
Si      -0.04823255       0.12932154       3.42915619
Si      -0.17910831       2.68685469       1.92145761
Si       1.45714531       5.26900952       1.96800350
Si       1.70841681       1.19744787       2.81816203
Si      -1.26057025       3.29180410       5.23144280
Si       3.27137684       4.26864286       2.57738823
Si      -2.84964460       0.23660513       5.50284062
Si       0.14074890       0.30800551       5.71563380
Si      -0.36604880       4.59357470       3.12336360
10
Lattice="7.386700358849618 0.3231947561793379 0.09267267072088375 -3.0680878986033786 5.6729813398967135 0.45796075572077416 -2.0802807570857085 -2.51940640990857 5.579483130502651" Properties=species:S:1:pos:R:3 unique_starting_index=21 config_type=initial n_minim_iter=10 pbc="T T T"
Si       2.31972410      -0.52380410       5.79237499
Si      -0.03255925       0.17700274       3.42043266
Si      -0.14564144       2.64042880       1.97055732
Si       1.50188480       5.17031293       2.05401868
Si       1.77742678       1.23356385       2.84539599
Si      -1.22244456       3.27432249       5.25876878
Si       3.36794052       4.21179206       2.68251382
Si      -2.84404885       0.31513844       5.45811054
Si       0.19346027       0.40858589       5.72060321
Si      -0.33695238       4.52714299       3.20265589
10
Lattice="7.512791559926562 0.3800659468899115 0.20216062531208406 -3.074712179011543 5.370754474145146 0.5785051263444698 -2.0466494881429314 -2.2337223692095796 5.427267916410231" Properties=species:S:1:pos:R:3 unique_starting_index=21 config_type=initial n_minim_iter=11 pbc="T T T"
Si       2.46141649      -0.27660416       5.77019847
Si      -0.00269160       0.26510707       3.38600012
Si      -0.08936211       2.55934216       2.03656664
Si       1.58582534       4.99333191       2.19370491
Si       1.87905837       1.28950910       2.87771975
Si      -1.14955772       3.24558487       5.27914282
Si       3.51384468       4.11620009       2.84034337
Si      -2.82276767       0.44242985       5.36157824
Si       0.27939699       0.57614204       5.69211492
Si      -0.27619245       4.40383640       3.31646832
10
Lattice="7.7556091932845765 0.43896665230422344 0.32929027760244084 -3.1325608357799495 5.1146547531468185 0.7121100469592045 -2.030725473984085 -1.9519421830533963 5.342827633010333" Properties=species:S:1:pos:R:3 unique_starting_index=21 config_type=initial n_minim_iter=12 pbc="T T T"
Si       2.65486172      -0.01992508       5.83638241
Si       0.03250460       0.36754642       3.39780379
Si      -0.03717096       2.50368301       2.13182817
Si       1.70011297       4.86311801       2.38086122
Si       2.01691842       1.36322010       2.95942537
Si      -1.08878351       3.25783861       5.37638028
Si       3.71563949       4.06084962       3.05139387
Si      -2.83224846       0.58761645       5.33688251
Si       0.38306602       0.76222582       5.74359986
Si      -0.21531550       4.32459773       3.48390147
10
Lattice="7.7252995847890285 0.43283963668143477 0.37468422740299445 -3.12424841743428 4.833055309707221 0.7982481359945901 -1.9810176540779085 -1.705882379647301 5.1886497519286365" Properties=species:S:1:pos:R:3 unique_starting_index=21 config_type=initial n_minim_iter=13 pbc="T T T"
Si       2.70018087       0.14648453       5.75968672
Si       0.03081801       0.42622513       3.33729616
Si      -0.02625136       2.40147763       2.14716890
Si       1.70757887       4.65286097       2.44969613
Si       2.04685023       1.37889779       2.94666906
Si      -1.06534462       3.18477647       5.33639941
Si       3.73119939       3.90809568       3.11483421
Si      -2.79484205       0.68323365       5.22117923
Si       0.41678463       0.86747934       5.66104044
Si      -0.20431141       4.16725701       3.52386515
10
Lattice="7.896569278799809 0.41235593116553537 0.3712829348479813 -3.2203089681518775 4.959353043968958 0.8105127701667483 -2.0215226497081384 -1.7485284346947414 5.336534259748351" Properties=species:S:1:pos:R:3 unique_starting_index=21 config_type=initial n_minim_iter=14 pbc="T T T"
Si       2.75758566       0.13551195       5.91617137
Si       0.01736737       0.42724277       3.42709665
Si      -0.04410991       2.45211617       2.19513860
Si       1.72419953       4.75486322       2.50023849
Si       2.08981497       1.40658418       3.01952704
Si      -1.11682362       3.24673101       5.47097112
Si       3.79615006       3.97863378       3.18113962
Si      -2.86581882       0.70081238       5.35938565
Si       0.41501641       0.87704679       5.81202890
Si      -0.23261120       4.26053299       3.60558224
10
Lattice="7.8273952411045356 0.3933942186954872 0.35646366593431233 -3.2057728438659523 4.923399305791525 0.8074244387092152 -2.0068406717582357 -1.730471914233239 5.3053587953303065" Properties=species:S:1:pos:R:3 unique_starting_index=21 config_type=initial n_minim_iter=15 pbc="T T T"
Si       2.72645990       0.13060420       5.87494916
Si       0.00870531       0.42223841       3.40508060
Si      -0.05330372       2.42933448       2.17797930
Si       1.69684977       4.71164598       2.47827113
Si       2.06665602       1.39357547       2.99520146
Si      -1.12392330       3.21694082       5.43484169
Si       3.75111041       3.93598800       3.15243188
Si      -2.85001099       0.70003029       5.32643426
Si       0.40131842       0.86829549       5.77314388
Si      -0.24534158       4.22413920       3.57952055
10
Lattice="7.809745105163757 0.37534862528261337 0.34678755986188925 -3.213829471393694 4.916849862970808 0.8080262400519231 -2.002238490960676 -1.7218064891793445 5.308807991436737" Properties=species:S:1:pos:R:3 unique_starting_index=21 config_type=initial n_minim_iter=16 pbc="T T T"
Si       2.71593080       0.12710208       5.87430975
Si       0.00063521       0.41976071       3.40600299
Si      -0.06315397       2.42062232       2.17470016
Si       1.68050730       4.69606078       2.47304585
Si       2.05895873       1.38946279       2.99158573
Si      -1.13801266       3.20554167       5.43363216
Si       3.73108097       3.91521906       3.14508984
Si      -2.85013917       0.70428956       5.32704068
Si       0.39243498       0.86505067       5.77279733
Si      -0.25968197       4.21275253       3.57672721
10
Lattice="7.795523754935531 0.3483265906407274 0.33431247577081 -3.231440412678292 4.910732024764745 0.8106668145747098 -1.996960346695068 -1.7081343357917647 5.320629972908277" Properties=species:S:1:pos:R:3 unique_starting_index=21 config_type=initial n_minim_iter=17 pbc="T T T"
Si       2.70535210       0.12372595       5.88209990
Si      -0.01056094       0.41764684       3.41260728
Si      -0.07788057       2.40992496       2.17338756
Si       1.65857702       4.67657350       2.47018168
Si       2.05129731       1.38510005       2.99105760
Si      -1.16008291       3.19238305       5.43987401
Si       3.70682921       3.88723174       3.13976127
Si      -2.85306668       0.71319208       5.33508980
Si       0.38096773       0.86266083       5.78067451
Si      -0.28148377       4.19978779       3.57871200
10
Lattice="7.784797676052251 0.3226357472882093 0.32390084878981584 -3.249453491495874 4.902900997402039 0.8140811015554758 -1.9914691774813922 -1.692633154474795 5.33190001248567" Properties=species:S:1:pos:R:3 unique_starting_index=21 config_type=initial n_minim_iter=18 pbc="T T T"
Si       2.69682228       0.12198390       5.89050222
Si      -0.01985767       0.41691209       3.41982948
Si      -0.09148500       2.39962268       2.17325035
Si       1.63825545       4.65653106       2.46940413
Si       2.04499952       1.38076088       2.99164822
Si      -1.18018355       3.18063129       5.44725058
Si       3.68489505       3.85967311       3.13642057
Si      -2.85520644       0.72323594       5.34367176
Si       0.37138792       0.86183071       5.78926841
Si      -0.30200287       4.18679367       3.58242481
10
Lattice="7.767404716071041 0.26918842345509425 0.30394842450215337 -3.2891640034290726 4.886285206627627 0.8219356174288426 -1.9799316700196177 -1.6587603087873957 5.357083716090736" Properties=species:S:1:pos:R:3 unique_starting_index=21 config_type=initial n_minim_iter=19 pbc="T T T"
Si       2.68114045       0.11902735       5.91040238
Si      -0.03708733       0.41686704       3.43688896
Si      -0.11918104       2.37922802       2.17479423
Si       1.59647602       4.61444093       2.47027086
Si       2.03300531       1.37102175       2.99480417
Si      -1.22083031       3.15851387       5.46547722
Si       3.64092352       3.80262604       3.13176778
Si      -2.85939810       0.74568363       5.36445609
Si       0.35311908       0.86144050       5.80987443
Si      -0.34455980       4.16034083       3.59279962
10
Lattice="7.752280040581855 0.20475439420936492 0.28198807366568807 -3.3396923888044374 4.866489949292196 0.8319069882373312 -1.9658316077433364 -1.6166512945806806 5.38983149988997" Properties=species:S:1:pos:R:3 unique_starting_index=21 config_type=initial n_minim_iter=20 pbc="T T T"
Si       2.66438202       0.11497389       5.93667684
Si      -0.05413945       0.41867813       3.45984970
Si      -0.15145546       2.35682965       2.17914960
Si       1.54589115       4.56314949       2.47410409
Si       2.01905994       1.35697879       3.00088805
Si      -1.26751151       3.13599448       5.49079266
Si       3.58910826       3.73493946       3.12855578
Si      -2.86392635       0.77418432       5.39404469
Si       0.33333017       0.86208566       5.83787364
Si      -0.39568664       4.12943584       3.60826573
10
Lattice="7.7404540006123606 0.12521449866853443 0.25497718272508535 -3.4051762529590586 4.846419080395017 0.8450229462793128 -1.9502099213042 -1.5660379132656295 5.435188452421222" Properties=species:S:1:pos:R:3 unique_starting_index=21 config_type=initial n_minim_iter=21 pbc="T T T"
Si       2.64491400       0.10827379       5.97273292
Si      -0.07279437       0.42212847       3.49129721
Si      -0.19069864       2.33305591       2.18736911
Si       1.48286827       4.50259907       2.48125549
Si       2.00180304       1.33759103       3.01088335
Si      -1.32437920       3.11400262       5.52684339
Si       3.52641275       3.65558073       3.12680640
Si      -2.87166957       0.80990570       5.43751773
Si       0.30950036       0.86338157       5.87721722
Si      -0.45939153       4.09497452       3.63069410
10
Lattice="7.729728042716807 0.029053304356548956 0.2206514808144837 -3.485966724566304 4.824732467832303 0.8628651114988755 -1.933722603417128 -1.504963131934731 5.49275399559561" Properties=species:S:1:pos:R:3 unique_starting_index=21 config_type=initial n_minim_iter=22 pbc="T T T"
Si       2.62021653       0.09948052       6.01713998
Si      -0.09424568       0.42763230       3.53100452
Si      -0.23801928       2.30741256       2.19946889
Si       1.40536659       4.43079577       2.49172970
Si       1.97972195       1.31206923       3.02374838
Si      -1.39298651       3.09234331       5.57342386
Si       3.45024131       3.56315773       3.12567555
Si      -2.88378539       0.85367679       5.49527828
Si       0.27973466       0.86583554       5.92712125
Si      -0.53741941       4.05581702       3.66029466
10
Lattice="7.7287181207499 -0.08006260473236548 0.1799497496029901 -3.5827119758397754 4.8049214383985515 0.8875503114532125 -1.9195530084492791 -1.4345713191561498 5.564904497327542" Properties=species:S:1:pos:R:3 unique_starting_index=21 config_type=initial n_minim_iter=23 pbc="T T T"
Si       2.59319906       0.09147508       6.07385549
Si      -0.11851250       0.43638807       3.58131063
Si      -0.29237393       2.28278681       2.21755766
Si       1.31798496       4.35343471       2.50920061
Si       1.95592761       1.28294169       3.04156683
Si      -1.47230077       3.07489433       5.63463385
Si       3.36708764       3.46415898       3.12899880
Si      -2.90342190       0.90590399       5.57061008
Si       0.24487304       0.87185798       5.99144365
Si      -0.62763135       4.01667245       3.70075881
10
Lattice="7.729431618696449 -0.08910473322438862 0.17640425002552249 -3.591091168940932 4.803447902878492 0.8900516787163827 -1.9187435499412595 -1.428461028415929 5.571280087193144" Properties=species:S:1:pos:R:3 unique_starting_index=21 config_type=initial n_minim_iter=24 pbc="T T T"
Si       2.59092431       0.09116998       6.07896445
Si      -0.12058963       0.43735989       3.58592112
Si      -0.29700096       2.28101871       2.21935716
Si       1.31083472       4.34720565       2.51117859
Si       1.95412019       1.28058896       3.04318717
Si      -1.47899766       3.07385119       5.64027764
Si       3.36038658       3.45626893       3.12960716
Si      -2.90545427       0.91053851       5.57753454
Si       0.24184764       0.87271167       5.99729953
Si      -0.63524326       4.01372944       3.70466842
10
Lattice="7.783218485807334 -0.5299211523182544 -0.007621837181799951 -4.0082221243022245 4.747855630369899 1.0235319859440457 -1.8939978972265528 -1.1325175813746593 5.897946363270031" Properties=species:S:1:pos:R:3 unique_starting_index=21 config_type=initial n_minim_iter=25 pbc="T T T"
Si       2.47138390       0.08145559       6.34222109
Si      -0.22960475       0.49030462       3.82542397
Si      -0.52651141       2.20444788       2.31361907
Si       0.96383415       4.05794078       2.61634977
Si       1.86612125       1.16741473       3.12479448
Si      -1.81276701       3.03750493       5.93232334
Si       3.04008648       3.08697138       3.16273232
Si      -3.02041948       1.13858302       5.93389022
Si       0.08453455       0.92068764       6.29914639
Si      -1.01282503       3.88552738       3.90913703
10
Lattice="7.903805153831108 -0.26170922326083695 -0.03811288861786962 -3.8240761528958394 4.901022123573925 1.0937795212910781 -2.072365130594416 -1.2892237751370592 5.82092215574312" Properties=species:S:1:pos:R:3 unique_starting_index=21 config_type=initial n_minim_iter=26 pbc="T T T"
Si       2.43030785       0.18093172       6.26464138
Si      -0.25433138       0.50724808       3.80489586
Si      -0.45095123       2.32923782       2.31639688
Si       1.18999906       4.35637150       2.65685538
Si       1.93147894       1.30123597       3.08048969
Si      -1.72605923       3.15261364       5.90922218
Si       3.23615584       3.41004650       3.16255315
Si      -3.09129892       1.08090016       5.89818015
Si       0.05429490       0.97726705       6.24697115
Si      -0.85651361       4.09380006       3.92438889
10
Lattice="7.66421228952644 -0.3244846819052401 -0.03226899189938558 -3.771144366269213 4.740249415210951 1.045529574717667 -1.9740512665975392 -1.2210948776536685 5.691807739011717" Properties=species:S:1:pos:R:3 unique_starting_index=21 config_type=initial n_minim_iter=27 pbc="T T T"
Si       2.37069362       0.14816030       6.11882691
Si      -0.24040680       0.48682077       3.71534309
Si      -0.46238099       2.24182926       2.25662793
Si       1.09635701       4.17025531       2.57853930
Si       1.86248099       1.23050188       3.00089542
Si      -1.69620205       3.03778761       5.75959206
Si       3.09722575       3.24229456       3.07708919
Si      -2.99414313       1.06470511       5.75750801
Si       0.05578929       0.93575897       6.10074515
Si      -0.87379869       3.93544519       3.81400807
10
Lattice="7.740993165778264 -0.3538491553487241 -0.025930198120666534 -3.832187083999409 4.776885452784863 1.0488131345015297 -1.9765150091461385 -1.2188307520067154 5.762997612656561" Properties=species:S:1:pos:R:3 unique_starting_index=21 config_type=initial n_minim_iter=28 pbc="T T T"
Si       2.40247745       0.14306644       6.19693804
Si      -0.23910098       0.49006771       3.76310771
Si      -0.47727801       2.25612387       2.28261119
Si       1.08763558       4.18733971       2.60833152
Si       1.87994064       1.23065016       3.03504085
Si      -1.71687444       3.05727404       5.82559319
Si       3.11723616       3.24622024       3.11271142
Si      -3.01845330       1.08107999       5.82330708
Si       0.06074698       0.94193308       6.17727115
Si      -0.89591445       3.95744785       3.85398218
10
Lattice="7.739757854757421 -0.3737294913147955 -0.02629696025033182 -3.8493359110334215 4.769146210244395 1.0479297136215218 -1.9676356942658315 -1.2060261134242736 5.77357861328142" Properties=species:S:1:pos:R:3 unique_starting_index=21 config_type=initial n_minim_iter=29 pbc="T T T"
Si       2.40336356       0.13978529       6.20653822
Si      -0.23842371       0.48999777       3.77085246
Si      -0.48638125       2.25086041       2.28600003
Si       1.07118975       4.16937238       2.61209474
Si       1.87641324       1.22204636       3.03594344
Si      -1.72235427       3.05075810       5.83343789
Si       3.10542367       3.22605900       3.11525835
Si      -3.01792698       1.08751743       5.83217994
Si       0.05933847       0.94159912       6.18851205
Si      -0.90837282       3.94563879       3.85718745
