14
Lattice="5.7607270064192315 -0.44547417856030164 0.5505581165608461 -0.46863190926555287 5.480599485162375 -1.6152741297057114 1.0714322533588623 -4.331766849623078 9.300529063046064" Properties=species:S:1:pos:R:3 unique_starting_index=196 config_type=initial n_minim_iter=1 energy=-2279.951220140278 free_energy=-2279.951220140278 pbc="T T T"
Si       4.02447600      -2.39072008       9.61055634
Si       5.03032676       0.20187106       5.21188672
Si       2.98084321      -0.32017394       6.94216700
Si       0.04898817       3.52390789       0.87121341
Si       1.57675885       3.63441152       2.69579541
Si       6.32379028      -1.32108099       6.55014410
Si       3.44792045       0.09357299       3.33727804
Si       2.94607608      -2.74603511       7.13872194
Si       1.71562790      -2.82423866       9.12253428
Si       1.48559616       1.43990132       3.76770206
Si      -0.19022422       4.75736854      -1.22698586
Si       5.24657062      -3.11729624       7.74678167
Si       3.26347603       4.25909309      -0.32422125
Si       3.78465882       2.37676938       2.50782999
14
Lattice="5.763138520204789 -0.44581953613223746 0.5305818296629058 -0.4650306315933205 5.474750377452186 -1.6045709969763688 1.0451644994717424 -4.325232281995573 9.250619864457894" Properties=species:S:1:pos:R:3 unique_starting_index=196 config_type=initial n_minim_iter=2 stress="-0.0010826199984491512 -0.00011248929093067763 -0.0008969230114285718 -0.00011248929093067763 -0.0018045637222317693 -0.0002809509590101669 -0.0008969230114285718 -0.0002809509590101669 -0.002302221873548029" pbc="T T T"
Si       3.99913153      -2.38658342       9.55262263
Si       5.01797455       0.20348991       5.17093279
Si       2.96261730      -0.31913096       6.89849040
Si       0.04545588       3.52042385       0.86827064
Si       1.56989310       3.63169404       2.67935609
Si       6.30840449      -1.32017506       6.49806472
Si       3.44077559       0.09263417       3.31089419
Si       2.92755660      -2.74252313       7.09288606
Si       1.69170309      -2.81841605       9.07249184
Si       1.47442100       1.44005286       3.74613930
Si      -0.18687421       4.75223997      -1.21873754
Si       5.22938972      -3.11250633       7.69028886
Si       3.26223049       4.25380874      -0.33034883
Si       3.77924565       2.37411455       2.48405559
14
Lattice="5.7912847273845705 -0.4464146660448226 0.5202443701296057 -0.4639113433368661 5.4989751640848965 -1.5962348120210086 1.0341728119507287 -4.332807982289083 9.244328444476135" Properties=species:S:1:pos:R:3 unique_starting_index=196 config_type=initial n_minim_iter=3 stress="0.005848134209303965 -0.0006996992245897894 -0.002761476603081451 -0.0006996992245897894 0.004545219632197019 0.00040173584604060185 -0.002761476603081451 0.00040173584604060185 0.0012675104475482455" pbc="T T T"
Si       4.00321528      -2.38445932       9.54926080
Si       5.03393688       0.21708498       5.16211176
Si       2.96679538      -0.31189909       6.89111864
Si       0.04289950       3.53798342       0.87527352
Si       1.57648878       3.65556587       2.68485330
Si       6.32739930      -1.32016992       6.48394167
Si       3.45326774       0.09467343       3.30644312
Si       2.93111992      -2.74701227       7.08101146
Si       1.68966286      -2.81565986       9.06900518
Si       1.47306905       1.45493066       3.74898645
Si      -0.18390158       4.77352622      -1.21022048
Si       5.24836744      -3.11393840       7.67195382
Si       3.26810610       4.27338440      -0.32650436
Si       3.79458341       2.38894665       2.47994091
14
Lattice="5.76166908090981 -0.4319281202905983 0.549073915841104 -0.4575843914811887 5.486308958865732 -1.5878508415238712 1.0671459581175817 -4.307112566272265 9.235508087718822" Properties=species:S:1:pos:R:3 unique_starting_index=196 config_type=initial n_minim_iter=4 stress="0.0002864619625922352 -0.0004275211197535924 0.0011260432675473627 -0.0004275211197535924 3.285220135556365e-05 0.0012279442980622053 0.0011260432675473627 0.0012279442980622053 -0.0015459060486923365" pbc="T T T"
Si       4.02733965      -2.35638053       9.56893038
Si       5.03304791       0.24738343       5.18197798
Si       2.98752015      -0.29599137       6.89345514
Si       0.05076547       3.53138487       0.88513301
Si       1.59641454       3.66316199       2.70364611
Si       6.32027576      -1.30052993       6.50351505
Si       3.45249934       0.10040529       3.32382434
Si       2.94908774      -2.72715571       7.07745576
Si       1.73343022      -2.78425418       9.07037904
Si       1.48228325       1.46714384       3.76175651
Si      -0.17755778       4.76349979      -1.19879569
Si       5.26536165      -3.07935474       7.67496944
Si       3.23369008       4.27052841      -0.29446511
Si       3.79298245       2.39622646       2.49930926
14
Lattice="5.741798488438638 -0.42180845841050746 0.5384206174966135 -0.44084936376607986 5.4845189000956625 -1.6154983250936776 1.0310221392705816 -4.335770105508845 9.292043344798682" Properties=species:S:1:pos:R:3 unique_starting_index=196 config_type=initial n_minim_iter=5 stress="-0.0011722360361930088 0.0008793602734184237 -0.0006702503271056549 0.0008793602734184237 -0.00044804736577517493 -0.0014764650200042783 -0.0006702503271056549 -0.0014764650200042783 0.0007290639043237243" pbc="T T T"
Si       3.98727861      -2.38475874       9.61297092
Si       5.00446315       0.23949458       5.19126294
Si       2.95963786      -0.31795907       6.91564243
Si       0.05550661       3.52298098       0.87723315
Si       1.59377220       3.65298275       2.69863516
Si       6.28043228      -1.31142427       6.51960295
Si       3.43262759       0.09267587       3.33106609
Si       2.91829001      -2.74652742       7.11000345
Si       1.70302486      -2.81185300       9.12078986
Si       1.47034578       1.45446787       3.77098894
Si      -0.16645560       4.76216319      -1.22247730
Si       5.22456917      -3.09350851       7.70646043
Si       3.22694383       4.27159542      -0.31962262
Si       3.77966147       2.38944040       2.49185755
14
Lattice="5.756616691137651 -0.436126833782343 0.5405301384499669 -0.4589394018890298 5.477553330922023 -1.5931868348972529 1.0530389204732369 -4.301598871071477 9.266451063016133" Properties=species:S:1:pos:R:3 unique_starting_index=196 config_type=initial n_minim_iter=6 stress="0.00039213574477943983 -0.0010639665120248858 -0.0003141843019096572 -0.0010639665120248858 -0.0010440844789092374 0.0017865348339354858 -0.0003141843019096572 0.0017865348339354858 0.0012801538867073469" pbc="T T T"
Si       4.01615167      -2.36186181       9.59476208
Si       5.01988384       0.24547078       5.19013165
Si       2.97089971      -0.30154779       6.90583789
Si       0.04692502       3.52662931       0.89214001
Si       1.59074795       3.65876602       2.71103778
Si       6.30262109      -1.30081952       6.50982702
Si       3.44043099       0.09570871       3.33253640
Si       2.94063279      -2.72685715       7.09344917
Si       1.72707820      -2.78323479       9.10304965
Si       1.47255162       1.46460719       3.77437049
Si      -0.18731072       4.75739237      -1.20346857
Si       5.25036638      -3.07463336       7.69150045
Si       3.21782509       4.25768967      -0.30046103
Si       3.78318885       2.38397527       2.50276187
14
Lattice="5.770234256536869 -0.437342442745483 0.5534954732997308 -0.46313668606722 5.50209293330839 -1.5911439878218891 1.0793383448386973 -4.328417512552911 9.22465654793173" Properties=species:S:1:pos:R:3 unique_starting_index=196 config_type=initial n_minim_iter=7 stress="0.0008934190239972915 -0.0008061358970273458 0.0015216712109176703 -0.0008061358970273458 0.0031806709759574477 0.00021702466325639408 0.0015216712109176703 0.00021702466325639408 -0.002251839738177128" pbc="T T T"
Si       4.05913533      -2.38616451       9.55562279
Si       5.04516359       0.24512727       5.17536829
Si       2.99260156      -0.31145169       6.87156321
Si       0.05136473       3.54257900       0.88807043
Si       1.60537504       3.67490515       2.69860908
Si       6.33194711      -1.30622908       6.48897044
Si       3.45290919       0.09283936       3.32745445
Si       2.96924999      -2.74539846       7.06489429
Si       1.76436101      -2.80542674       9.06517210
Si       1.48606832       1.46866516       3.75891547
Si      -0.19977651       4.77981872      -1.20248703
Si       5.28085592      -3.08893898       7.66862416
Si       3.21592663       4.27396555      -0.29347662
Si       3.79819510       2.38715233       2.49948998
14
Lattice="5.774825002466429 -0.4235871037103959 0.5502918226764743 -0.4505339311498103 5.483857122387813 -1.595346460644047 1.0639587246034174 -4.314439767157992 9.243478582995833" Properties=species:S:1:pos:R:3 unique_starting_index=196 config_type=initial n_minim_iter=8 stress="0.0019343607734322262 0.00041019690368434685 0.0009239581514198068 0.00041019690368434685 -2.106150076114536e-05 0.00024984980897013384 0.0009239581514198068 0.00024984980897013384 -0.0008038342348135649" pbc="T T T"
Si       4.06102524      -2.37902677       9.57232319
Si       5.04701253       0.25900215       5.18088428
Si       2.98598525      -0.30929693       6.87494279
Si       0.05954652       3.53217182       0.89348743
Si       1.61764276       3.66990442       2.70393770
Si       6.32846319      -1.28470880       6.49147898
Si       3.44954601       0.09732513       3.33554372
Si       2.96631868      -2.73291971       7.07362352
Si       1.76626571      -2.79566877       9.08792939
Si       1.48751409       1.46848848       3.76729628
Si      -0.20062129       4.76598982      -1.20619044
Si       5.27481996      -3.06394929       7.67835593
Si       3.21524653       4.26362980      -0.29599501
Si       3.80523367       2.38076838       2.50322548
14
Lattice="5.753247576464654 -0.42650008780141035 0.5408800426118786 -0.4484020034163135 5.486474902097586 -1.5985536140099736 1.0448447996522792 -4.3174141096904926 9.263004577210317" Properties=species:S:1:pos:R:3 unique_starting_index=196 config_type=initial n_minim_iter=9 stress="-0.0013777245479661819 -0.00013597640282445112 -0.00046856617251909836 -0.00013597640282445112 0.0005901531236640299 0.00043098961700819974 -0.00046856617251909836 0.00043098961700819974 0.00033344787433576233" pbc="T T T"
Si       4.03988829      -2.39000625       9.58757052
Si       5.01903298       0.26169885       5.18217374
Si       2.95819833      -0.31472208       6.87709809
Si       0.05716849       3.53421510       0.89948815
Si       1.60983132       3.67418868       2.70890594
Si       6.29222750      -1.28318963       6.48946266
Si       3.42635898       0.09344560       3.34083696
Si       2.94895860      -2.73695422       7.08098980
Si       1.75855790      -2.79881976       9.11128290
Si       1.47422996       1.47046709       3.77515559
Si      -0.21278237       4.76950578      -1.20924060
Si       5.24423477      -3.06292008       7.68305185
Si       3.18924101       4.26048256      -0.30180260
Si       3.78630892       2.37341269       2.50370514
14
Lattice="5.765837544562168 -0.4287943295369502 0.5439039746488856 -0.45232535743379987 5.479313569512005 -1.605723024902474 1.0528241003258563 -4.322142981484063 9.269322571102968" Properties=species:S:1:pos:R:3 unique_starting_index=196 config_type=initial n_minim_iter=10 stress="1.9047899315469e-05 -0.00028182335923576126 -0.00014588089839195206 -0.00028182335923576126 -0.000980798247231871 -0.0005415856261972792 -0.00014588089839195206 -0.0005415856261972792 0.0004218714275846203" pbc="T T T"
Si       4.06308216      -2.40619784       9.59364866
Si       5.03128322       0.25757864       5.18336685
Si       2.96210672      -0.32646613       6.87279973
Si       0.05751523       3.52674596       0.89706397
Si       1.61640444       3.66586280       2.70684676
Si       6.30811507      -1.28604090       6.49135363
Si       3.43092667       0.08610715       3.34509272
Si       2.96272618      -2.74251640       7.08466208
Si       1.77982958      -2.80662709       9.12123425
Si       1.47877493       1.46469119       3.77490923
Si      -0.22838862       4.76396120      -1.21591535
Si       5.26091876      -3.06592551       7.68622781
Si       3.18464591       4.24983123      -0.30571586
Si       3.79557464       2.35922212       2.50405069
14
Lattice="5.78106149829393 -0.4082774425795815 0.5433859354082446 -0.43521889262067553 5.476763305511308 -1.5939796063845777 1.042888835157782 -4.304213332219526 9.247236930682055" Properties=species:S:1:pos:R:3 unique_starting_index=196 config_type=initial n_minim_iter=11 stress="0.0011710220444315846 0.0016108282643671613 -2.5319849539589496e-05 0.0016108282643671613 -0.0010027968361719698 -0.00020146063630739793 -2.5319849539589496e-05 -0.00020146063630739793 -5.080604555865776e-05" pbc="T T T"
Si       4.08874415      -2.39069555       9.57890853
Si       5.04553643       0.29372261       5.17439555
Si       2.95571080      -0.30816772       6.85117225
Si       0.07322022       3.52633079       0.90083412
Si       1.63980412       3.67802510       2.71296244
Si       6.32368278      -1.23990589       6.47918308
Si       3.43337462       0.10021616       3.34420431
Si       2.96772773      -2.71961732       7.07046193
Si       1.80512482      -2.78601821       9.11505673
Si       1.49110521       1.48089628       3.77005547
Si      -0.24325145       4.76419634      -1.20692198
Si       5.26860139      -3.03055371       7.65966976
Si       3.19273084       4.25769693      -0.29974995
Si       3.82018903       2.36704497       2.50710617
14
Lattice="5.785183910073593 -0.4291267911066366 0.5441887032227729 -0.45518250671046245 5.481112894133599 -1.5949839551016796 1.060024465722528 -4.31171769735323 9.247492810041358" Properties=species:S:1:pos:R:3 unique_starting_index=196 config_type=initial n_minim_iter=12 stress="0.0005590328212851471 -0.00061615079180226 0.0001533107699106685 -0.00061615079180226 -0.0005482910179131883 -0.0006339457256042715 0.0001533107699106685 -0.0006339457256042715 -3.3954367972751384e-05" pbc="T T T"
Si       4.10836342      -2.41360158       9.58533904
Si       5.04464749       0.27959298       5.17291666
Si       2.94643681      -0.31767670       6.85159583
Si       0.06247785       3.52050285       0.89136101
Si       1.62640772       3.66811742       2.71423055
Si       6.33630433      -1.25744301       6.48925307
Si       3.43323402       0.08486193       3.34151289
Si       2.97549744      -2.72987615       7.07690822
Si       1.83056952      -2.79510520       9.12515885
Si       1.48986525       1.47800949       3.76506051
Si      -0.27632364       4.76893551      -1.20804979
Si       5.28323640      -3.05420038       7.64968626
Si       3.17875892       4.24986046      -0.30480948
Si       3.82206360       2.35327614       2.50616715
14
Lattice="5.773143158433404 -0.416458527696517 0.5413596898680454 -0.44224955244100894 5.488405948528272 -1.5797491621369488 1.0464039964810026 -4.294530345657773 9.23302057277518" Properties=species:S:1:pos:R:3 unique_starting_index=196 config_type=initial n_minim_iter=13 stress="-0.0009468476543688828 0.0001869538502573375 -0.0001370631775859991 0.0001869538502573375 0.001344389125238508 0.0010651659826886883 -0.0001370631775859991 0.0010651659826886883 -4.7454993193244475e-05" pbc="T T T"
Si       4.09279213      -2.38301803       9.57664233
Si       5.03452363       0.30091979       5.16890025
Si       2.93482644      -0.28926001       6.85328689
Si       0.06985545       3.52674212       0.89278597
Si       1.62479550       3.68287894       2.72249131
Si       6.32339598      -1.23103607       6.48918366
Si       3.42913477       0.09900672       3.33482740
Si       2.95523460      -2.71004730       7.06967499
Si       1.81916391      -2.77647881       9.12026763
Si       1.49008005       1.49450995       3.76550313
Si      -0.26205272       4.78007321      -1.19248834
Si       5.26028746      -3.03006383       7.63294524
Si       3.18332881       4.26816136      -0.29586310
Si       3.82649966       2.37977704       2.50974971
14
Lattice="5.783058048037971 -0.4113581751185355 0.5448844544806892 -0.4391531494760063 5.482101229706447 -1.5852581657369045 1.0492871433604207 -4.295838567780047 9.240503831347814" Properties=species:S:1:pos:R:3 unique_starting_index=196 config_type=initial n_minim_iter=14 stress="-0.0007435098872086341 0.00016754239888809336 -0.00019953396748857932 0.00016754239888809336 0.0004092110072688449 0.00023005282224198979 -0.00019953396748857932 0.00023005282224198979 -0.00010951188988760696" pbc="T T T"
Si       4.13534720      -2.40049589       9.58735105
Si       5.04834865       0.30383161       5.16481060
Si       2.92037967      -0.28899766       6.84912463
Si       0.07928666       3.51327061       0.88119049
Si       1.62868003       3.67591438       2.72341928
Si       6.34097057      -1.21695712       6.49870745
Si       3.43194953       0.08855685       3.33530611
Si       2.95467324      -2.71026745       7.07486284
Si       1.86653169      -2.79170487       9.15795205
Si       1.49821120       1.49578489       3.76740181
Si      -0.28649525       4.78900566      -1.19083288
Si       5.25772541      -3.01473792       7.62028660
Si       3.16033343       4.26278855      -0.29985756
Si       3.85772603       2.37718044       2.51511469
14
Lattice="5.801506853830342 -0.4111717335228437 0.5529941536146968 -0.4426848970595623 5.472436914281158 -1.5937641594363883 1.0642848740728839 -4.298371906074326 9.252958733336468" Properties=species:S:1:pos:R:3 unique_starting_index=196 config_type=initial n_minim_iter=15 stress="0.0006479942391244661 -0.00010388997860642222 0.00011529726190027759 -0.00010388997860642222 -0.0007298688513492553 -0.0005502754450923833 0.00011529726190027759 -0.0005502754450923833 1.9185891895714303e-05" pbc="T T T"
Si       4.18909512      -2.41701369       9.60357604
Si       5.07581494       0.29414752       5.16589048
Si       2.92058703      -0.29109219       6.85461726
Si       0.08810130       3.49915998       0.86625664
Si       1.62828322       3.66195552       2.71984901
Si       6.37245122      -1.21420483       6.51584955
Si       3.44497041       0.07709052       3.33773558
Si       2.95858124      -2.71316006       7.08774056
Si       1.91937226      -2.81086252       9.19767242
Si       1.51003999       1.48906918       3.77048157
Si      -0.30711358       4.79216338      -1.18803263
Si       5.26159977      -3.00865632       7.61496938
Si       3.14685615       4.25269604      -0.30420329
Si       3.89347575       2.37420243       2.52372732
14
Lattice="5.827584615882685 -0.40552437317322443 0.5715750223987435 -0.4452235985074524 5.458034234674301 -1.599348317824203 1.0933796857394167 -4.287148925948458 9.277809329990609" Properties=species:S:1:pos:R:3 unique_starting_index=196 config_type=initial n_minim_iter=16 stress="0.0008185284457102491 0.0004642906404188815 -0.00021839732355348587 0.0004642906404188815 -0.0001953020415244181 0.0002657657992624053 -0.00021839732355348587 0.0002657657992624053 0.0008423271645137168" pbc="T T T"
Si       4.28291531      -2.40552085       9.65709102
Si       5.13559870       0.29159445       5.17737272
Si       2.94660936      -0.27899454       6.88051350
Si       0.11499922       3.49448723       0.85156152
Si       1.62498656       3.65191237       2.71047986
Si       6.41120637      -1.20727555       6.54543052
Si       3.47194252       0.08036951       3.35716220
Si       2.94288977      -2.70173334       7.12077243
Si       2.02287393      -2.80972607       9.26510814
Si       1.52990046       1.47640016       3.78661617
Si      -0.32921002       4.77250683      -1.15746470
Si       5.23840763      -2.99864757       7.58854884
Si       3.14200920       4.23881718      -0.29916782
Si       3.94411143       2.38892379       2.55261806
14
Lattice="5.8189369611023976 -0.41416594933309536 0.5710795872838869 -0.4520064850754597 5.462801968393361 -1.6017275893727063 1.096998041972993 -4.296825212662777 9.27491265097426" Properties=species:S:1:pos:R:3 unique_starting_index=196 config_type=initial n_minim_iter=17 stress="0.00014287975900555765 -3.889177893480563e-05 -6.387378773746947e-05 -3.889177893480563e-05 -0.00022614076845510505 0.00021341965068049566 -6.387378773746947e-05 0.00021341965068049566 -0.0003510538265187454" pbc="T T T"
Si       4.25917910      -2.40758921       9.64885797
Si       5.12611326       0.27682187       5.17706864
Si       2.95732778      -0.28879329       6.88428705
Si       0.10591326       3.50017735       0.85441677
Si       1.61777081       3.64999015       2.70493461
Si       6.40001740      -1.23081026       6.54128023
Si       3.47127392       0.08035383       3.35588764
Si       2.94217804      -2.71161888       7.11798357
Si       1.99394017      -2.81530687       9.24425536
Si       1.52357671       1.47029671       3.78221334
Si      -0.31332971       4.76983352      -1.16484784
Si       5.23655003      -3.01991122       7.59829105
Si       3.15428411       4.23998667      -0.30034847
Si       3.92216008       2.38646393       2.54685108
14
Lattice="5.817301376995359 -0.4269520256278622 0.5857701995515505 -0.4660281767006601 5.4770298298443665 -1.612489322801516 1.127131684666013 -4.324069516603284 9.283151612305097" Properties=species:S:1:pos:R:3 unique_starting_index=196 config_type=initial n_minim_iter=18 stress="-0.0035381965239972527 -0.001796437501530949 0.0006590722496877968 -0.001796437501530949 0.0016123623161119294 -0.0011464559151554159 0.0006590722496877968 -0.0011464559151554159 -0.00047056140339160553" pbc="T T T"
Si       4.31330425      -2.44323719       9.66838266
Si       5.13751979       0.26248513       5.17251695
Si       2.96839015      -0.31187597       6.89444280
Si       0.10302876       3.49965509       0.85076068
Si       1.61917858       3.64501187       2.70490152
Si       6.41085674      -1.25868925       6.56146235
Si       3.47999073       0.07179999       3.37084746
Si       2.93746096      -2.73156528       7.12620550
Si       2.04943172      -2.84825609       9.28377680
Si       1.52917533       1.47299787       3.77469971
Si      -0.33681645       4.78211985      -1.18348437
Si       5.21955851      -3.04866024       7.58412358
Si       3.15400701       4.24421963      -0.30153558
Si       3.92540618       2.38219182       2.55586843
14
Lattice="5.844101619122955 -0.4008902961049483 0.5907584181642372 -0.4461158721801569 5.466777175234847 -1.6071484352543421 1.1228631237275415 -4.306170203288977 9.273666830102597" Properties=species:S:1:pos:R:3 unique_starting_index=196 config_type=initial n_minim_iter=19 stress="0.0008527956069591711 0.0005359157714401329 9.217914737131338e-05 0.0005359157714401329 -6.723063088042401e-05 -0.000307851777220394 9.217914737131338e-05 -0.000307851777220394 0.00022750013179192595" pbc="T T T"
Si       4.34264532      -2.40750626       9.66644558
Si       5.17505933       0.28653819       5.16228154
Si       3.00241500      -0.29780612       6.90141763
Si       0.11709383       3.49775310       0.86138367
Si       1.64780860       3.65167182       2.70820572
Si       6.43297833      -1.23944427       6.55700699
Si       3.50857576       0.09484523       3.37806123
Si       2.91953674      -2.70925962       7.11563382
Si       2.06453618      -2.83055135       9.29258968
Si       1.54159684       1.48523679       3.77189799
Si      -0.29824444       4.76852026      -1.18425632
Si       5.20449018      -3.01737204       7.55813527
Si       3.20016712       4.25404108      -0.28860791
Si       3.95275529       2.40704925       2.56335727
14
Lattice="5.839087247441491 -0.4031871274936287 0.5823374951696685 -0.44630544306445497 5.4681451132944074 -1.5979479026424812 1.112270825257572 -4.297269162596162 9.25775981389586" Properties=species:S:1:pos:R:3 unique_starting_index=196 config_type=initial n_minim_iter=20 stress="2.3863035206520786e-05 6.32434830613331e-05 -0.0003366731255023686 6.32434830613331e-05 -0.0004993687160742376 0.0009846538639119672 -0.0003366731255023686 0.0009846538639119672 -0.00027326705797101915" pbc="T T T"
Si       4.31389875      -2.39987463       9.63977871
Si       5.16197952       0.29347448       5.15357471
Si       3.00180283      -0.29764191       6.89527666
Si       0.10515239       3.50266737       0.87688652
Si       1.65370226       3.66362745       2.71502816
Si       6.41267784      -1.23744176       6.53601824
Si       3.50036542       0.10099174       3.37269839
Si       2.91121911      -2.70293845       7.10206865
Si       2.03973858      -2.81631319       9.26891610
Si       1.53117910       1.49229010       3.76425413
Si      -0.28093410       4.76356480      -1.19183892
Si       5.19838270      -3.01203925       7.54906467
Si       3.21245753       4.25634347      -0.28216104
Si       3.93220448       2.40382717       2.55904523
14
Lattice="5.852192414288702 -0.4092246245698823 0.5886325590503293 -0.45424209522721926 5.467135207867772 -1.6054454887674832 1.1279359635475599 -4.307232592500043 9.265135450782655" Properties=species:S:1:pos:R:3 unique_starting_index=196 config_type=initial n_minim_iter=21 stress="-0.0007472891220463082 -0.0007968113841009164 -5.345566028493815e-05 -0.0007968113841009164 5.2019587102386026e-05 0.0009739853817846141 -5.345566028493815e-05 0.0009739853817846141 6.26953453527135e-05" pbc="T T T"
Si       4.35114838      -2.42039140       9.64484615
Si       5.18687034       0.28000230       5.14931769
Si       3.01551867      -0.30871926       6.91296074
Si       0.10227770       3.49683325       0.87158480
Si       1.65714526       3.66334478       2.71253261
Si       6.42190624      -1.24999796       6.54285355
Si       3.51045558       0.09450347       3.37340239
Si       2.89068016      -2.71014754       7.11915590
Si       2.08839450      -2.83349539       9.30301015
Si       1.53313223       1.48412628       3.75571191
Si      -0.27457051       4.75653191      -1.20147444
Si       5.17936309      -3.02191325       7.52680866
Si       3.22674998       4.25307881      -0.28225111
Si       3.94820272       2.40090141       2.56781651
