22
Lattice="9.693309072623386 -1.6114732059287846 0.15277210443916273 -2.921811264747846 8.399245044406054 3.0867490759181018 1.5669057017410033 2.837488484789227 7.020949022422434" Properties=species:S:1:pos:R:3 unique_starting_index=184 config_type=initial n_minim_iter=1 energy=-3583.169297844706 free_energy=-3583.169297844706 pbc="T T T"
Si       6.60696434       3.71018056       8.55398751
Si       0.93816066       5.97630314       3.44887298
Si       8.23989375       3.02951229       6.97941333
Si      10.59166889       1.09365958       6.06988203
Si       1.70127044       8.72159456       8.22048909
Si       2.87950821       7.88223937       6.43396109
Si      -0.05909312       8.08879494       4.20036582
Si       4.79277723       4.21384616       6.37608859
Si      -1.38221875       8.41615834       6.22180217
Si       9.76279299       0.19112368       2.61863011
Si       9.97608806       2.15062508       4.00835322
Si       3.21864806       6.23953731       3.72583001
Si      -0.55094969       8.16839311       8.53604691
Si       5.96317978       7.87824976       9.16068459
Si       4.98090415       8.44767288       7.13999003
Si       7.66726928       2.35953745       4.76094085
Si       2.83103325       5.58749278       6.00462987
Si       5.47544683       3.01271055       2.45865423
Si       0.94418051       4.63574675       7.19850379
Si       7.00357818       4.96532667       5.62221283
Si       7.60981590       5.44110220       3.31600016
Si       5.22672119       2.56274760       4.73750957
22
Lattice="9.736695358070463 -1.6146951969834273 0.14983919600874804 -2.936602375442888 8.411939658804604 3.0929665468349405 1.573617953735563 2.8525748574417644 7.004554714638213" Properties=species:S:1:pos:R:3 unique_starting_index=184 config_type=initial n_minim_iter=2 stress="0.0022203507351569313 0.0003139806316632786 -0.00015590675256231027 0.0003139806316632786 0.0011004604596084428 0.0005934363149076122 -0.00015590675256231027 0.0005934363149076122 -0.0008716301442868698" pbc="T T T"
Si       6.63707672       3.72642114       8.53533387
Si       0.93961787       5.98813736       3.44815285
Si       8.27692271       3.04291879       6.96525205
Si      10.63811338       1.10430251       6.05225060
Si       1.70713735       8.74395781       8.21439910
Si       2.89076014       7.89856065       6.42940502
Si      -0.06016875       8.10287491       4.20244351
Si       4.81329634       4.22856368       6.36393476
Si      -1.39060034       8.43564062       6.21743822
Si       9.80586524       0.19318969       2.61209334
Si      10.01971129       2.15659810       4.00045712
Si       3.23229444       6.25021850       3.72668737
Si      -0.55446726       8.19157757       8.52436273
Si       5.98800247       7.89953429       9.14670858
Si       5.00225200       8.46705278       7.13355654
Si       7.70136229       2.36829255       4.75144812
Si       2.84292109       5.60255459       5.99604734
Si       5.49846498       3.01765185       2.45725656
Si       0.94702246       4.65345027       7.18435804
Si       7.03307247       4.97692700       5.61477185
Si       7.64296628       5.44855816       3.31853302
Si       5.24985843       2.57233822       4.72738169
22
Lattice="9.716031519130539 -1.6316413624275317 0.15866333454702874 -2.9474427720012524 8.380562605412957 3.091623214070806 1.5702243955097153 2.8424176438177424 6.991579319752117" Properties=species:S:1:pos:R:3 unique_starting_index=184 config_type=initial n_minim_iter=3 stress="-0.0026259075428164296 -0.0011432585535942517 0.0002828875038121912 -0.0011432585535942517 -0.005142360629065414 0.0009997333812801835 0.0002828875038121912 0.0009997333812801835 -0.006373543323206434" pbc="T T T"
Si       6.62598455       3.69479008       8.52746525
Si       0.91921864       5.96535296       3.44119861
Si       8.25999034       3.01385643       6.96716849
Si      10.61144924       1.08188128       6.04384084
Si       1.68834729       8.70861181       8.21883077
Si       2.87094776       7.85359494       6.42815492
Si      -0.07187276       8.06750461       4.19978555
Si       4.79671538       4.20558422       6.35468582
Si      -1.40545155       8.40946585       6.20477135
Si       9.78128572       0.16637798       2.62023237
Si       9.99070568       2.12049815       4.00295668
Si       3.21407915       6.21349439       3.72915634
Si      -0.56270187       8.16579933       8.50884636
Si       5.96159819       7.85250907       9.13608502
Si       4.97865129       8.42404834       7.12699034
Si       7.68258064       2.34062359       4.75187218
Si       2.82962216       5.57476365       5.98760586
Si       5.47623932       2.98825444       2.46029547
Si       0.93691293       4.63997642       7.16874499
Si       7.00469099       4.93497342       5.61591660
Si       7.61555510       5.40024846       3.33420088
Si       5.23709760       2.55101648       4.72239327
22
Lattice="9.722774611057481 -1.6486124215950408 0.16986964259629495 -2.958145718217867 8.396977340630995 3.108274199628467 1.5737661398219893 2.8429183696973346 7.041098869540419" Properties=species:S:1:pos:R:3 unique_starting_index=184 config_type=initial n_minim_iter=4 stress="2.4237041343975934e-05 -0.00203628768232831 0.0005376182602698843 -0.00203628768232831 -0.0012271138367302792 0.0010877414983124542 0.0005376182602698843 0.0010877414983124542 0.0012880189421359363" pbc="T T T"
Si       6.63975972       3.68098190       8.59566319
Si       0.90602616       5.98030855       3.45675953
Si       8.27196654       3.00414718       7.03245685
Si      10.61648812       1.07094383       6.08834982
Si       1.68296358       8.72202072       8.29309418
Si       2.86803573       7.85337497       6.47815611
Si      -0.07371959       8.07989516       4.22539422
Si       4.79798211       4.20805797       6.39824134
Si      -1.41703325       8.43045546       6.23786231
Si       9.78554146       0.14691349       2.65237038
Si       9.99293671       2.10295092       4.03842098
Si       3.21256144       6.21575957       3.75793754
Si      -0.56427084       8.18275581       8.56218332
Si       5.96021356       7.85024872       9.19961893
Si       4.97910656       8.43355123       7.17442894
Si       7.68943674       2.33016431       4.79359805
Si       2.83089665       5.57851970       6.02713610
Si       5.47256289       2.98056363       2.48113761
Si       0.93258112       4.64954318       7.21362604
Si       7.00089742       4.92398805       5.66348199
Si       7.61733511       5.39029594       3.37550389
Si       5.24302705       2.54593244       4.75770054
22
Lattice="9.706813790867335 -1.6162409977270908 0.16618708319559009 -2.926315188976074 8.395688988882938 3.085649563291075 1.5773073876304387 2.8371344155679137 7.0237022633539645" Properties=species:S:1:pos:R:3 unique_starting_index=184 config_type=initial n_minim_iter=5 stress="-0.0004206598214042934 0.0003707096718457735 0.00040982642253024524 0.0003707096718457735 -5.341937198609154e-05 -0.0004147782896333921 0.00040982642253024524 -0.0004147782896333921 -0.0005017122760093158" pbc="T T T"
Si       6.64329506       3.68852914       8.57205384
Si       0.92234157       5.99040183       3.43438063
Si       8.27159910       3.02328429       7.01256246
Si      10.60479872       1.09864394       6.06751873
Si       1.70725259       8.72686107       8.26479341
Si       2.88952619       7.86267234       6.45081686
Si      -0.04425942       8.08702923       4.19930529
Si       4.80303655       4.22018974       6.37378993
Si      -1.39053601       8.42977633       6.20730995
Si       9.77340973       0.17542468       2.64127712
Si       9.98668509       2.13304725       4.01905787
Si       3.23019175       6.23031024       3.73497722
Si      -0.53987003       8.17881668       8.52981789
Si       5.97527164       7.86444289       9.16175720
Si       5.00081542       8.45352944       7.13887393
Si       7.68761134       2.35152513       4.77689649
Si       2.84523535       5.58544971       6.00169508
Si       5.47486514       2.99963410       2.46562797
Si       0.94192088       4.64668877       7.19047339
Si       7.00620289       4.94361732       5.63982991
Si       7.62741475       5.41965301       3.35553265
Si       5.24477381       2.55940997       4.74027472
22
Lattice="9.705078796913694 -1.6152065246847114 0.13544014973519664 -2.934813418896906 8.396518433057771 3.1024238642826663 1.5557377423695296 2.841446725057269 7.0261535636480525" Properties=species:S:1:pos:R:3 unique_starting_index=184 config_type=initial n_minim_iter=6 stress="-0.00019700591749692039 0.0003936533413385168 -0.0017860671143588346 0.0003936533413385168 0.0002885453821258432 0.00035319224422932665 -0.0017860671143588346 0.00035319224422932665 0.00023584851428033103" pbc="T T T"
Si       6.61954555       3.68957757       8.56487674
Si       0.91180351       5.99331307       3.43851335
Si       8.25130357       3.02662764       6.99656950
Si      10.58698064       1.10175405       6.04056693
Si       1.68301535       8.73218947       8.27326058
Si       2.86963576       7.86633611       6.45800105
Si      -0.05332079       8.09257661       4.20736874
Si       4.78143451       4.22492924       6.36463013
Si      -1.40967823       8.43382796       6.21901613
Si       9.76296478       0.17681855       2.61004494
Si       9.97281877       2.13704889       3.99018869
Si       3.21809172       6.23082215       3.73089879
Si      -0.56785239       8.18664904       8.54155229
Si       5.94566141       7.86861340       9.15265769
Si       4.97794234       8.45831500       7.13405322
Si       7.67312326       2.35577649       4.76180451
Si       2.82758867       5.58775308       5.99913156
Si       5.46646337       2.99950179       2.45123434
Si       0.92047115       4.65310697       7.19529515
Si       6.98775570       4.94505068       5.62847935
Si       7.61415724       5.42126848       3.34066328
Si       5.23110725       2.56354590       4.72847290
22
Lattice="9.76391114487245 -1.6440306692323436 0.1802465768850245 -2.964376366557374 8.38802207264601 3.0839601464472692 1.584695974439426 2.8167852198409604 7.055856339650349" Properties=species:S:1:pos:R:3 unique_starting_index=184 config_type=initial n_minim_iter=7 stress="0.005150196392805155 0.0003348489168070956 -0.0015839408162743095 0.0003348489168070956 0.004659960671577043 -0.000394784385205979 -0.0015839408162743095 -0.000394784385205979 0.0034106138428008016" pbc="T T T"
Si       6.71571550       3.59307065       8.66705080
Si       0.90999932       5.98819495       3.45185813
Si       8.33638538       2.96418168       7.07683045
Si      10.68877363       1.03598329       6.11151862
Si       1.70686889       8.70550845       8.30792310
Si       2.88145766       7.83362173       6.54899962
Si      -0.02638549       8.11599857       4.20126385
Si       4.80184465       4.19649193       6.37802232
Si      -1.42573935       8.42385051       6.18850445
Si       9.81026181       0.13045920       2.62360977
Si      10.03078028       2.10496617       4.01339567
Si       3.22486725       6.18733752       3.73244424
Si      -0.59019011       8.19610441       8.53647877
Si       5.97627234       7.80629238       9.16787094
Si       4.99835992       8.42433939       7.15927348
Si       7.73858134       2.32710418       4.84598341
Si       2.85651565       5.54595413       6.00008485
Si       5.49407744       2.95247204       2.46173096
Si       0.94817975       4.65211025       7.20834526
Si       7.02720625       4.88017103       5.69941716
Si       7.62442922       5.37656123       3.40208022
Si       5.28508451       2.54443983       4.75288368
22
Lattice="9.71461153961859 -1.6261760624470432 0.21833432975252048 -2.925086121831482 8.372114295484456 3.117272858849126 1.6134019620657998 2.843408104330699 7.0916785507261375" Properties=species:S:1:pos:R:3 unique_starting_index=184 config_type=initial n_minim_iter=8 stress="-0.0003254434402695378 0.001262821173255007 -9.816501324607911e-05 0.001262821173255007 0.0029276475082463485 0.0026807358259770897 -9.816501324607911e-05 0.0026807358259770897 0.0018441346236135457" pbc="T T T"
Si       6.74449085       3.60685962       8.75537862
Si       0.92420782       5.99618309       3.49195853
Si       8.34145822       2.99142313       7.15801080
Si      10.67078527       1.07122800       6.17393928
Si       1.74560577       8.72514499       8.39110861
Si       2.90672677       7.83636979       6.63717473
Si       0.01893543       8.12793729       4.24640475
Si       4.80459915       4.22284086       6.42389907
Si      -1.38371908       8.43193045       6.22185396
Si       9.76628561       0.14999406       2.66452624
Si       9.99896107       2.12925454       4.06982745
Si       3.23266248       6.18150378       3.77972716
Si      -0.54617489       8.22876396       8.58121566
Si       5.99443948       7.82433195       9.24012710
Si       5.01795649       8.44258677       7.23453382
Si       7.73096709       2.35609231       4.91844772
Si       2.88033071       5.55867695       6.04316347
Si       5.47859025       2.95411864       2.50041149
Si       0.98407145       4.68186630       7.24228551
Si       7.02196577       4.88877462       5.78001993
Si       7.60097146       5.37965406       3.48752447
Si       5.29117813       2.56958934       4.79359890
22
Lattice="9.73717969559924 -1.642244548082404 0.24662054456861818 -2.949439294365834 8.292382772864597 3.077913727248742 1.6227952918080955 2.782872749727243 7.090111191409481" Properties=species:S:1:pos:R:3 unique_starting_index=184 config_type=initial n_minim_iter=9 stress="-0.0008764764645733437 8.19360446346404e-06 0.00010841430066821241 8.19360446346404e-06 -0.005054427125548419 -0.000529816737019459 0.00010841430066821241 -0.000529816737019459 -0.000520115296229385" pbc="T T T"
Si       6.78198170       3.49083863       8.78852464
Si       0.90840583       5.93585614       3.47045525
Si       8.37186123       2.90044002       7.18381923
Si      10.70276132       1.00016732       6.19023060
Si       1.73390051       8.61269155       8.38525142
Si       2.90229724       7.71736355       6.63758505
Si       0.01957549       8.05658987       4.21212376
Si       4.80415493       4.14547242       6.41161575
Si      -1.40308387       8.34114958       6.17452520
Si       9.77980086       0.10455572       2.67677475
Si      10.01488150       2.06031182       4.07850089
Si       3.22640873       6.09150635       3.75668348
Si      -0.56297054       8.14263648       8.54162286
Si       5.99666914       7.68774922       9.21562384
Si       5.01798374       8.32606837       7.21274285
Si       7.75321609       2.29497044       4.94592465
Si       2.88399932       5.47529615       6.02171181
Si       5.48046303       2.89270343       2.49492771
Si       0.98853260       4.61320406       7.22092716
Si       7.02983280       4.78765333       5.79344432
Si       7.59767363       5.28679852       3.50272913
Si       5.31026131       2.51469709       4.79172754
22
Lattice="9.714146052819697 -1.6857236057003595 0.2565479600073845 -2.9684731178536277 8.341479036661244 3.0541540601769146 1.6136209658977705 2.7812297373158983 7.067325043948732" Properties=species:S:1:pos:R:3 unique_starting_index=184 config_type=initial n_minim_iter=10 stress="-0.003723588064338139 -0.002030647379428356 0.00040089311701554947 -0.002030647379428356 -0.0014969068744790101 -0.0008790567282349784 0.00040089311701554947 -0.0008790567282349784 -0.0033255747889857725" pbc="T T T"
Si       6.76037551       3.46362027       8.77498255
Si       0.88600369       5.96159590       3.45382502
Si       8.34342696       2.87186345       7.16864451
Si      10.67255810       0.95630588       6.17586873
Si       1.69829417       8.64098724       8.35483951
Si       2.87195480       7.73152502       6.61328937
Si      -0.00220097       8.10089348       4.18708701
Si       4.77611734       4.13959914       6.38898535
Si      -1.42382975       8.38113604       6.14051429
Si       9.74885251       0.06801094       2.67283047
Si       9.98004249       2.02857418       4.07241921
Si       3.19615871       6.10273172       3.73557172
Si      -0.58767803       8.18450551       8.50038677
Si       5.95832591       7.69009099       9.17953639
Si       4.97947846       8.34093180       7.18454544
Si       7.72674375       2.27541067       4.94051889
Si       2.86030613       5.48670966       5.99635749
Si       5.45541262       2.88356100       2.48604281
Si       0.97718156       4.62217288       7.18999656
Si       6.99797021       4.77744113       5.78048347
Si       7.55566315       5.28100015       3.49581676
Si       5.29155526       2.50395824       4.77567407
22
Lattice="9.714064963993287 -1.6377859661363017 0.29781715719881546 -2.91319854403881 8.345591392294343 3.0613411521216376 1.6608585970277694 2.8041370172844466 7.097892672047993" Properties=species:S:1:pos:R:3 unique_starting_index=184 config_type=initial n_minim_iter=11 stress="-0.000522665170794987 0.0006144900305725548 0.0011003079820877297 0.0006144900305725548 0.001229195009436086 0.0005670617332807454 0.0011003079820877297 0.0005670617332807454 -0.0013233410066942205" pbc="T T T"
Si       6.82666205       3.49886192       8.87065104
Si       0.93693374       5.98515995       3.49046682
Si       8.39179105       2.91809339       7.22631663
Si      10.71550478       1.01112623       6.22790365
Si       1.75526200       8.68011884       8.39635192
Si       2.94838787       7.74804051       6.65169687
Si       0.06496848       8.15032538       4.20846021
Si       4.81756499       4.16976279       6.43370925
Si      -1.34517933       8.39320441       6.16488856
Si       9.76169916       0.13573479       2.70817342
Si      10.01979078       2.08890485       4.14064045
Si       3.24120417       6.12514041       3.75195000
Si      -0.52053053       8.24223899       8.52025957
Si       6.05169769       7.73858403       9.23863123
Si       5.06353570       8.38440795       7.24929005
Si       7.76620774       2.34009918       5.00530519
Si       2.91578137       5.53058782       6.03092135
Si       5.49011875       2.92446990       2.51590214
Si       1.04940634       4.62713777       7.20688842
Si       7.07147888       4.83553415       5.84721717
Si       7.59534400       5.33830058       3.54793952
Si       5.33527849       2.54775953       4.80604676
22
Lattice="9.725925423992658 -1.6500114178781322 0.3187993350769586 -2.926415290593214 8.310607162811658 3.0558819645839743 1.6689147757595697 2.7746435692101055 7.134486482340097" Properties=species:S:1:pos:R:3 unique_starting_index=184 config_type=initial n_minim_iter=12 stress="0.0009715346723998606 -0.0003214361054407773 -0.00042158554860912155 -0.0003214361054407773 0.00030962804059849727 -0.0001414634243586257 -0.00042158554860912155 -0.0001414634243586257 0.0017177004963165258" pbc="T T T"
Si       6.86839489       3.41101228       8.97546047
Si       0.91830052       5.96797587       3.50060538
Si       8.41799724       2.85739352       7.29569298
Si      10.74195277       0.95874049       6.25927800
Si       1.74343561       8.63544503       8.45095651
Si       2.95136810       7.68007571       6.71955131
Si       0.08518547       8.14915515       4.21156234
Si       4.80778272       4.13248196       6.45075648
Si      -1.35705155       8.36252635       6.15753722
Si       9.76287918       0.11035348       2.71586127
Si      10.02829196       2.05412909       4.16641354
Si       3.23417617       6.06954223       3.74925386
Si      -0.54881891       8.24402930       8.52552699
Si       6.05453506       7.66027649       9.26143038
Si       5.06351415       8.32930175       7.28102393
Si       7.78204818       2.31685384       5.06850676
Si       2.92259942       5.48758967       6.03794717
Si       5.49337221       2.88294277       2.52090483
Si       1.05982713       4.59060091       7.21866694
Si       7.08127159       4.77583765       5.90833167
Si       7.58083525       5.28991555       3.59579703
Si       5.35501432       2.52400633       4.82248246
22
Lattice="9.71517829942092 -1.6305215148041916 0.3008358348546499 -2.9152363346655346 8.290624285904519 3.0499239273017893 1.6580121777443455 2.7629966282280987 7.129612191827184" Properties=species:S:1:pos:R:3 unique_starting_index=184 config_type=initial n_minim_iter=13 stress="0.0007991697017478253 -0.0003091837904976102 -0.0030544891759466176 -0.0003091837904976102 -0.0021291115351053476 -0.0011874322967347507 -0.0030544891759466176 -0.0011874322967347507 0.0009775998107965681" pbc="T T T"
Si       6.84021637       3.42435747       8.96592360
Si       0.89259696       5.95791167       3.48037623
Si       8.39164712       2.84926360       7.28152506
Si      10.72013684       0.94417516       6.20362814
Si       1.73381869       8.62104900       8.43330318
Si       2.96310341       7.65892994       6.70788676
Si       0.09313569       8.13779204       4.21120246
Si       4.81083256       4.12435105       6.43929642
Si      -1.35369579       8.35609358       6.15533527
Si       9.76609192       0.13342273       2.70723843
Si      10.02418627       2.06588218       4.16394741
Si       3.23282312       6.05888037       3.73002571
Si      -0.57328058       8.26615901       8.50429461
Si       6.06067420       7.64055096       9.24518227
Si       5.06219296       8.30742442       7.27537619
Si       7.75684212       2.32340039       5.03766500
Si       2.91918707       5.46998824       6.01747891
Si       5.50732156       2.87996811       2.51095113
Si       1.05154185       4.52976359       7.19998439
Si       7.08467187       4.78695000       5.89512972
Si       7.58067178       5.30229546       3.57063312
Si       5.34248590       2.51278072       4.80788216
22
Lattice="9.701190156792686 -1.6149049338381387 0.39591812285104694 -2.8681597616068473 8.283695136883598 3.037090804857019 1.729724031019196 2.769780469522952 7.16737095490594" Properties=species:S:1:pos:R:3 unique_starting_index=184 config_type=initial n_minim_iter=14 stress="-0.000272325123617297 -0.00020850618471482366 -0.000579535867409989 -0.00020850618471482366 -0.0011009168265259564 -0.0004978579174367285 -0.000579535867409989 -0.0004978579174367285 -0.00018300473968120847" pbc="T T T"
Si       6.94032117       3.41777967       9.11609867
Si       0.89821238       5.97244149       3.49983468
Si       8.45446789       2.83858851       7.40961344
Si      10.77978746       0.91875051       6.27701527
Si       1.81160863       8.64002370       8.48895015
Si       3.04959000       7.64540205       6.81102775
Si       0.17648763       8.18189147       4.24102386
Si       4.87211178       4.13401965       6.49356302
Si      -1.28283502       8.38208434       6.15011270
Si       9.78060300       0.16075137       2.79359226
Si      10.05694622       2.09200830       4.28214488
Si       3.25938394       6.04287274       3.75698938
Si      -0.52692783       8.36951306       8.49094479
Si       6.16290339       7.62802084       9.32078374
Si       5.14157832       8.30905832       7.37012517
Si       7.79079937       2.35072120       5.14549310
Si       2.98620275       5.46308427       6.04072440
Si       5.54940748       2.87068507       2.56986166
Si       1.13660860       4.48552408       7.20711153
Si       7.15538958       4.80070775       6.01969508
Si       7.59670761       5.32323779       3.68407972
Si       5.39192903       2.52047731       4.86382137
22
Lattice="9.696336570884492 -1.6001908446492459 0.46123723579350057 -2.8310538507855925 8.296445955986401 3.038797631673131 1.7836924929301208 2.7912144963978465 7.1945715220893565" Properties=species:S:1:pos:R:3 unique_starting_index=184 config_type=initial n_minim_iter=15 stress="-0.0001861019797976268 0.0004893824004394336 0.0020084113045252404 0.0004893824004394336 0.0014386702267100244 0.0005918443475995762 0.0020084113045252404 0.0005918443475995762 -0.0008879989885700951" pbc="T T T"
Si       7.01612449       3.44406597       9.20582895
Si       0.91300180       5.99773450       3.51883726
Si       8.50382322       2.85534692       7.49468703
Si      10.83593466       0.91319985       6.32732408
Si       1.87503182       8.67861581       8.52989742
Si       3.11126557       7.66359933       6.88013847
Si       0.23924885       8.22079974       4.27635964
Si       4.93370694       4.16398949       6.53980586
Si      -1.22984318       8.42239235       6.15599718
Si       9.79451890       0.19209489       2.85675188
Si      10.08210336       2.12977159       4.35979491
Si       3.27319314       6.05375535       3.78781294
Si      -0.47863959       8.46861244       8.49109408
Si       6.23523208       7.64854424       9.38847082
Si       5.21384794       8.34177308       7.44482914
Si       7.82297361       2.37876307       5.21860833
Si       3.03711961       5.47757638       6.07043378
Si       5.58807409       2.88282909       2.62200441
Si       1.20115306       4.46915958       7.22842115
Si       7.21025662       4.83692764       6.10613016
Si       7.62302819       5.36270868       3.77541759
Si       5.42755078       2.54167595       4.91347442
22
Lattice="9.692742475962339 -1.5926530255173006 0.49147390048398565 -2.813270586664479 8.30066292717973 3.049029306229282 1.8090980039226188 2.804739258616794 7.2179937974358985" Properties=species:S:1:pos:R:3 unique_starting_index=184 config_type=initial n_minim_iter=16 stress="-0.00025205232009180154 0.0008469588981612107 0.0030271438076020234 0.0008469588981612107 0.002725834386208478 0.0010594443653348627 0.0030271438076020234 0.0010594443653348627 -0.001056390924960691" pbc="T T T"
Si       7.05632618       3.46061383       9.25824409
Si       0.91460463       6.01399592       3.53138335
Si       8.52333490       2.85980757       7.54363481
Si      10.87617811       0.88785257       6.33618340
Si       1.89779397       8.69832957       8.56053771
Si       3.13568821       7.66641930       6.92424852
Si       0.27924414       8.23626039       4.31255478
Si       4.97931345       4.18566897       6.57498247
Si      -1.21000315       8.44969367       6.16487516
Si       9.79469880       0.21538901       2.88618503
Si      10.08299454       2.15574073       4.39249764
Si       3.25601014       6.05506976       3.80915108
Si      -0.45935545       8.55754853       8.49439346
Si       6.25568298       7.64761617       9.44300259
Si       5.25725739       8.35867353       7.49789342
Si       7.83728375       2.38624640       5.26251664
Si       3.05939356       5.47993732       6.09955801
Si       5.61956607       2.89238448       2.66075216
Si       1.23698459       4.43698455       7.25985389
Si       7.23707169       4.86244353       6.16187939
Si       7.63892148       5.39281727       3.84702155
Si       5.44043922       2.55528295       4.95258875
22
Lattice="9.697739607247467 -1.5994239920406508 0.46326299328232945 -2.8312616470005603 8.292338054183903 3.064908680165022 1.787052045713417 2.8025278420412754 7.222476296324481" Properties=species:S:1:pos:R:3 unique_starting_index=184 config_type=initial n_minim_iter=17 stress="-8.510357232269575e-06 0.0003612353718728119 0.0015747306148034888 0.0003612353718728119 0.0020266994082142466 0.0009507964147898941 0.0015747306148034888 0.0009507964147898941 -0.0005072767148021536" pbc="T T T"
Si       7.03609476       3.45787835       9.23392329
Si       0.89989301       6.00944883       3.52996034
Si       8.50259660       2.84866696       7.51960794
Si      10.87859066       0.85709109       6.29262858
Si       1.86127920       8.68427126       8.56200761
Si       3.10318801       7.65208762       6.91283061
Si       0.26611236       8.21364280       4.32758000
Si       4.97896783       4.18558818       6.57825872
Si      -1.24174927       8.44469809       6.17311403
Si       9.78314987       0.21369142       2.85932245
Si      10.05881779       2.15071967       4.35293430
Si       3.21551668       6.04376066       3.81051587
Si      -0.48452671       8.57757980       8.50202063
Si       6.20429595       7.62477770       9.45300714
Si       5.23913427       8.34587671       7.49325729
Si       7.82660933       2.36349555       5.24734167
Si       3.03604075       5.46677421       6.11349619
Si       5.62598180       2.89362518       2.66135030
Si       1.21849526       4.40884968       7.28463747
Si       7.21825803       4.85937115       6.14911379
Si       7.63677800       5.39345945       3.85523931
Si       5.42220797       2.55304871       4.95667159
22
Lattice="9.700378996664435 -1.600696268197342 0.44520718156151656 -2.8433630012845437 8.265653828419179 3.066018407315264 1.7709117779497057 2.7843530189728796 7.228505114785522" Properties=species:S:1:pos:R:3 unique_starting_index=184 config_type=initial n_minim_iter=18 stress="0.00025458694213366666 0.00015764502201476706 -0.00011860143893351017 0.00015764502201476706 -0.0002061081990770735 -9.590066644391671e-05 -0.00011860143893351017 -9.590066644391671e-05 0.00018815122034170943" pbc="T T T"
Si       7.02815334       3.42738484       9.23607547
Si       0.88357019       5.99220907       3.52252515
Si       8.49283937       2.82117667       7.50872857
Si      10.87381896       0.82772872       6.26248494
Si       1.83368127       8.64769807       8.56535317
Si       3.08583834       7.61433183       6.90847218
Si       0.26068713       8.18809353       4.32479557
Si       4.96596386       4.16669332       6.57768064
Si      -1.26256613       8.41641733       6.16848749
Si       9.77298096       0.20759848       2.83757953
Si      10.04202500       2.13481541       4.32685142
Si       3.19422267       6.01351859       3.80258119
Si      -0.50974133       8.56698793       8.49931563
Si       6.17005456       7.58065207       9.45184237
Si       5.21853909       8.30707126       7.48261013
Si       7.81865702       2.33985122       5.24457307
Si       3.02047214       5.43865645       6.11604170
Si       5.62805761       2.88199312       2.65390191
Si       1.20550504       4.37135976       7.29101587
Si       7.20789999       4.83465357       6.14548506
Si       7.63088727       5.37661492       3.85756892
Si       5.41387248       2.54127618       4.95308368
22
Lattice="9.703565110168942 -1.6101954321691772 0.4018871094428443 -2.8680609441615754 8.256027846702253 3.073084889287204 1.7358268586032801 2.7745537855975226 7.21664639242069" Properties=species:S:1:pos:R:3 unique_starting_index=184 config_type=initial n_minim_iter=19 stress="0.0003557877094787994 -0.000788380734570673 -0.0019948112097826205 -0.000788380734570673 -0.001314282402282404 -0.0003236840026978133 -0.0019948112097826205 -0.0003236840026978133 0.0006336167018722688" pbc="T T T"
Si       6.98844975       3.42407868       9.17399481
Si       0.86638891       5.97704909       3.50839047
Si       8.46629775       2.81191783       7.44808400
Si      10.84162768       0.82058564       6.21363987
Si       1.79170018       8.62214495       8.54374928
Si       3.04550824       7.60590674       6.86170156
Si       0.22131138       8.15583801       4.31114775
Si       4.93248034       4.15619768       6.56657767
Si      -1.29877236       8.39308876       6.16945842
Si       9.75901702       0.19289210       2.79836300
Si      10.01249726       2.11411498       4.26884546
Si       3.17239448       6.00227270       3.79754968
Si      -0.53823219       8.52473722       8.50606508
Si       6.10587119       7.56702240       9.43271002
Si       5.16569231       8.28028137       7.44112388
Si       7.79794574       2.30953548       5.20344849
Si       2.98472905       5.42491116       6.11732767
Si       5.61570959       2.88349593       2.63224202
Si       1.16779510       4.36065573       7.29049143
Si       7.17622547       4.81883792       6.09939444
Si       7.62339002       5.36679978       3.82275501
Si       5.39021187       2.53423822       4.93321773
22
Lattice="9.697721593311226 -1.6019366841099543 0.4184185131692627 -2.856082926227889 8.242492497498885 3.0701440041146077 1.7482357975839402 2.7694926852402784 7.2291126541937585" Properties=species:S:1:pos:R:3 unique_starting_index=184 config_type=initial n_minim_iter=20 stress="0.00016324366761442968 -0.0004699709766897856 -0.0019305014365303362 -0.0004699709766897856 -0.0023359240757882885 -0.0009621464482041055 -0.0019305014365303362 -0.0009621464482041055 0.0005683467486078942" pbc="T T T"
Si       7.01578931       3.41990067       9.20891871
Si       0.86000559       5.97316869       3.50605213
Si       8.48322006       2.80279442       7.46941763
Si      10.84662001       0.80708706       6.21327387
Si       1.80639111       8.61221705       8.55658596
Si       3.06536283       7.59202385       6.87962501
Si       0.24229605       8.15609496       4.31483493
Si       4.94041590       4.15547904       6.58850159
Si      -1.28252015       8.38632975       6.16584384
Si       9.75457220       0.20201033       2.81253855
Si      10.00678013       2.11816591       4.28482067
Si       3.17395821       5.98587412       3.80767114
Si      -0.53094772       8.54657020       8.50412001
Si       6.11432168       7.55194562       9.45629781
Si       5.17244967       8.26099552       7.45930354
Si       7.80178442       2.30385206       5.23111729
Si       2.99589937       5.41195591       6.13128557
Si       5.63104539       2.88458056       2.64614000
Si       1.18721972       4.32615753       7.29264455
Si       7.19352009       4.81669573       6.13216420
Si       7.63141594       5.37701055       3.85659051
Si       5.40144392       2.53693459       4.94741310
22
Lattice="9.68841159389394 -1.5922213449921152 0.44695461550024995 -2.8343405704492985 8.251136350111437 3.070545418792965 1.7719753551806992 2.780965567601153 7.240261056972887" Properties=species:S:1:pos:R:3 unique_starting_index=184 config_type=initial n_minim_iter=21 stress="-0.00011318529410657284 2.440909326324431e-05 -0.0006067924227430333 2.440909326324431e-05 -0.0012343150011075474 -0.0006147518518982004 -0.0006067924227430333 -0.0006147518518982004 0.00020560672445224165" pbc="T T T"
Si       7.05589338       3.44773375       9.23956910
Si       0.86377627       5.98380071       3.50851575
Si       8.51215312       2.81720656       7.49403320
Si      10.84954101       0.81529458       6.22701240
Si       1.84297077       8.63338444       8.56813306
Si       3.09537450       7.61205442       6.89789478
Si       0.26802758       8.17717069       4.32284745
Si       4.95677354       4.17549186       6.62181902
Si      -1.24886628       8.40333079       6.16879470
Si       9.75153861       0.21688790       2.84164577
Si      10.00291590       2.13638947       4.31364594
Si       3.18703572       5.99257732       3.83501439
Si      -0.50169352       8.58517670       8.51088439
Si       6.13785105       7.57528600       9.49015858
Si       5.18935171       8.26831869       7.48907908
Si       7.81024604       2.30805399       5.26566050
Si       3.01610258       5.42143245       6.15528934
Si       5.64922316       2.90330071       2.66981706
Si       1.21946473       4.31094122       7.29411227
Si       7.21969522       4.83666973       6.17455377
Si       7.64907491       5.41394993       3.89989760
Si       5.42015669       2.55596885       4.97012760
