10
Lattice="6.565402950627747 0.0736309619616552 0.07753474086274892 -0.24869610362799618 6.561104150271596 0.07753474086275078 -0.2486961036279915 -0.2612172467367177 6.556360641145293" Properties=species:S:1:pos:R:3 unique_starting_index=202 config_type=initial n_minim_iter=1 energy=-1623.2317675471272 free_energy=-1623.2317675471272 pbc="T T T"
Si       3.52627265       0.44530108       5.93636553
Si       5.72527752       3.81187067       0.75111054
Si       0.27169045       5.74553703       3.84555799
Si       4.02755865       5.29008399       0.41954441
Si      -0.05191386       4.02986750       5.30468733
Si       5.08603062       0.19795357       4.29829521
Si       3.75088813       3.32967907       5.44489089
Si       5.07532857       4.00481837       3.60627663
Si       3.14156774       5.23583100       4.18561671
Si       5.93379789       6.23254778       6.56298605
10
Lattice="6.4333744570271 0.09140902166427278 0.09625536076722398 -0.22445934391480843 6.430107348753957 0.09625536076722598 -0.22445934391480354 -0.23576023494706624 6.426504704938278" Properties=species:S:1:pos:R:3 unique_starting_index=202 config_type=initial n_minim_iter=2 stress="-0.0024906153623896125 0.007000192117700972 0.0073713294974749296 0.007000192117700972 -0.001802629534038122 0.007742455020525179 0.0073713294974749296 0.007742455020525179 -0.0010023156393751112" pbc="T T T"
Si       3.43945128       0.53135569       5.83636797
Si       5.62535858       3.72003446       0.83188911
Si       0.36190265       5.64993059       3.75801355
Si       3.91862315       5.22000412       0.46190430
Si      -0.00070194       3.92331713       5.23688725
Si       5.02138190       0.24605041       4.18838739
Si       3.82459939       3.19608052       5.29513940
Si       4.92922641       4.07143904       3.46512679
Si       3.00451236       5.08281757       4.24486320
Si       5.85973471       6.15475573       6.48106961
10
Lattice="6.2880245616072665 -0.04755092448031483 -0.050071987505558385 -0.35611785620379877 6.278112299910536 -0.05007198750555221 -0.35611785620379033 -0.3740473797309108 6.2671596287263425" Properties=species:S:1:pos:R:3 unique_starting_index=202 config_type=initial n_minim_iter=3 stress="0.005220049666964549 0.004630062979099962 0.0048755404479118095 0.004630062979099962 0.005675096851446982 0.005121010074456814 0.0048755404479118095 0.005121010074456814 0.006204439999896476" pbc="T T T"
Si       3.16596550       0.41582700       5.59635559
Si       5.40533381       3.43540656       0.70412627
Si       0.25993622       5.42462964       3.46717060
Si       3.63984893       5.03148128       0.27650166
Si      -0.16223291       3.63626881       5.03904622
Si       4.84676886       0.07574396       3.89151020
Si       3.76074492       2.76066904       4.90470053
Si       4.56535845       3.98962687       3.01014334
Si       2.57275971       4.69729401       4.13967629
Si       5.47232113       5.74783698       6.05257677
10
Lattice="6.189252647601588 -0.09667967387703576 -0.10180545331808016 -0.4003395439212363 6.177048125501138 -0.10180545331806823 -0.40033954392122156 -0.4204955039398806 6.16355996371001" Properties=species:S:1:pos:R:3 unique_starting_index=202 config_type=initial n_minim_iter=4 stress="-0.0065223305351119 0.0030188675206144454 0.003178922353773655 0.0030188675206144454 -0.0062256332392477695 0.0033389720736627954 0.003178922353773655 0.0033389720736627954 -0.005880493908459857" pbc="T T T"
Si       3.05022147       0.36187939       5.46887342
Si       5.28663700       3.31369003       0.64367063
Si       0.21173450       5.30342094       3.34249593
Si       3.51821405       4.92389915       0.20788078
Si      -0.21916362       3.51168956       4.92806565
Si       4.74528639       0.01375765       3.76136879
Si       3.69485732       2.59723136       4.73486029
Si       4.40760846       3.91590785       2.83815727
Si       2.41275285       4.53149085       4.05717854
Si       5.29294459       5.55942933       5.85418009
10
Lattice="6.200565613824613 -0.14277870714292504 -0.15034857299314425 -0.44693827285146553 6.186084858035666 -0.15034857299312554 -0.4469382728514439 -0.4694403466415292 6.17007911822567" Properties=species:S:1:pos:R:3 unique_starting_index=202 config_type=initial n_minim_iter=5 stress="0.0007314331466669297 0.0009946881346376284 0.0010474246798309961 0.0009946881346376284 0.0008291920836725777 0.0011001595402511124 0.0010474246798309961 0.0011001595402511124 0.000942912210436992" pbc="T T T"
Si       3.00303969       0.30637783       5.44446287
Si       5.26746534       3.26550922       0.58698311
Si       0.15861557       5.28161586       3.29145344
Si       3.47285664       4.90070329       0.15201375
Si      -0.27146694       3.46370720       4.90201715
Si       4.72434468      -0.03963786       3.71210590
Si       3.66726541       2.50713587       4.66596418
Si       4.34488599       3.88520044       2.74462583
Si       2.32412018       4.46433724       4.02168447
Si       5.21760104       5.48029245       5.77084752
10
Lattice="6.205528363287518 -0.3100062111173686 -0.3264421732986537 -0.614207810306312 6.182833887810343 -0.32644217329860525 -0.6142078103062601 -0.6451314306572122 6.157743483934862" Properties=species:S:1:pos:R:3 unique_starting_index=202 config_type=initial n_minim_iter=6 stress="0.008585537436063998 -0.004843563328172547 -0.005100360194911243 -0.004843563328172547 0.008109507225395798 -0.005357148857760627 -0.005100360194911243 -0.005357148857760627 0.007555755133160573" pbc="T T T"
Si       2.84820268       0.04833628       5.33044915
Si       5.17464307       3.10592404       0.32340074
Si      -0.09151539       5.17639003       3.11847627
Si       3.32481085       4.75689538      -0.04274600
Si      -0.45105276       3.30665783       4.74834849
Si       4.58797637      -0.22614159       3.54733433
Si       3.42763182       2.23805870       4.42387837
Si       4.12904732       3.63467126       2.46341216
Si       2.06712883       4.23560945       3.75697451
Si       4.91013684       5.15734830       5.43078146
10
Lattice="6.143117091118042 -0.34398111954727084 -0.36221836921908096 -0.6450785471796256 6.118830302742531 -0.3622183692190134 -0.6450785471795542 -0.6775564215321905 6.091978637224577" Properties=species:S:1:pos:R:3 unique_starting_index=202 config_type=initial n_minim_iter=7 stress="0.0003560312713936111 -0.004728352313462761 -0.004979040902970966 -0.004728352313462761 -0.0001086758864130571 -0.005229721483731097 -0.004979040902970966 -0.005229721483731097 -0.0006492562007398747" pbc="T T T"
Si       2.80360439      -0.01879612       5.26633047
Si       5.11633681       3.05840674       0.25304836
Si      -0.15637794       5.11482603       3.06739110
Si       3.26586441       4.65045832      -0.05649554
Si      -0.45638718       3.24737813       4.64134363
Si       4.48456076      -0.23656434       3.48261063
Si       3.27976690       2.17100152       4.31826744
Si       4.03441863       3.48197783       2.39099330
Si       2.00740987       4.13793195       3.60074673
Si       4.80129173       5.04302315       5.31039500
10
Lattice="6.133667788370909 -0.31138420823308655 -0.3278932293005314 -0.6120571382564501 6.110992286261303 -0.3278932293004605 -0.612057138256374 -0.6428724783724616 6.085922745904494" Properties=species:S:1:pos:R:3 unique_starting_index=202 config_type=initial n_minim_iter=8 stress="0.0013619543923824554 -0.001373398227968721 -0.0014462132894912164 -0.001373398227968721 0.0012269754515700573 -0.0015190260247906011 -0.0014462132894912164 -0.0015190260247906011 0.0010699583774283728" pbc="T T T"
Si       2.84339393       0.02076247       5.29293525
Si       5.13888184       3.09935216       0.29392742
Si      -0.11881994       5.13924389       3.11039190
Si       3.29490450       4.65744459      -0.00355536
Si      -0.40536676       3.27896043       4.65105307
Si       4.49011328      -0.18520951       3.51465198
Si       3.27955417       2.23253051       4.35541667
Si       4.06831211       3.48343038       2.45435772
Si       2.06887515       4.17488676       3.60546787
Si       4.86093272       5.10566689       5.37636000
10
Lattice="6.085353647979759 -0.302115305711854 -0.3181329065243701 -0.6004280872851187 6.063191304166892 -0.31813290652428805 -0.60042808728503 -0.6306579376837337 6.0386892537019445" Properties=species:S:1:pos:R:3 unique_starting_index=202 config_type=initial n_minim_iter=9 stress="-0.005009960766724152 0.0009482934534917072 0.0009985702375661179 0.0009482934534917072 -0.0049167615450249 0.0010488454154490851 0.0009985702375661179 0.0010488454154490851 -0.004808345602392615" pbc="T T T"
Si       2.83170799       0.03918440       5.27400097
Si       5.11961946       3.08670556       0.31134751
Si      -0.09984665       5.12089062       3.09866129
Si       3.26196361       4.62067567       0.02343003
Si      -0.37493751       3.24747509       4.61572600
Si       4.45500545      -0.15646876       3.48138522
Si       3.25822200       2.21034188       4.30909873
Si       4.02430254       3.45990982       2.42980798
Si       2.04776027       4.12978649       3.58071154
Si       4.84632373       5.09032238       5.36020196
10
Lattice="6.121990957247725 -0.3066750406127875 -0.32293439022808074 -0.6067805324623695 6.09956066012811 -0.32293439022799 -0.6067805324622714 -0.6373302104497336 6.074762305623384" Properties=species:S:1:pos:R:3 unique_starting_index=202 config_type=initial n_minim_iter=10 stress="0.006288352442111769 0.0014181388626627312 0.0014933259907857664 0.0014181388626627312 0.0064277285369017025 0.001568510716906897 0.0014933259907857664 0.001568510716906897 0.00658986069231468" pbc="T T T"
Si       2.85795997       0.02044934       5.32227965
Si       5.16745303       3.11533978       0.29512931
Si      -0.11984762       5.16779906       3.12642025
Si       3.27185512       4.64869746       0.01361996
Si      -0.38665278       3.25680285       4.64320409
Si       4.48250798      -0.16684667       3.49211881
Si       3.25531936       2.22654290       4.33074316
Si       4.04519933       3.45803055       2.44710458
Si       2.06408423       4.15151066       3.57972753
Si       4.87614612       5.12164625       5.39318655
10
Lattice="6.095380129428193 -0.34041699859843827 -0.3584652850978693 -0.63917573097478 6.071325805793636 -0.358465285097758 -0.6391757309746616 -0.671356415281471 6.044731173871725" Properties=species:S:1:pos:R:3 unique_starting_index=202 config_type=initial n_minim_iter=11 stress="0.0001346060477003108 -0.0010219177758632979 -0.0010760979868213308 -0.0010219177758632979 3.4170954532647646e-05 -0.0011302764668835992 -0.0010760979868213308 -0.0011302764668835992 -8.266226682518612e-05" pbc="T T T"
Si       2.83454075      -0.05657091       5.31037348
Si       5.16069709       3.09156031       0.21759719
Si      -0.19562559       5.15731119       3.09867069
Si       3.20385207       4.60914143      -0.05475502
Si      -0.44947744       3.18563050       4.60017164
Si       4.44633730      -0.23152459       3.41882023
Si       3.18188879       2.15750547       4.26079201
Si       3.98258873       3.38143466       2.37454867
Si       1.99873407       4.08561317       3.49948880
Si       4.80090020       5.04261190       5.30996195
10
Lattice="6.072375674603103 -0.30923619062554336 -0.32563132772912523 -0.6069034145890779 6.049879469912133 -0.3256313277289994 -0.6069034145889447 -0.6374592793428254 6.025008135201381" Properties=species:S:1:pos:R:3 unique_starting_index=202 config_type=initial n_minim_iter=12 stress="-0.004567853323781345 0.0018056091158598815 0.0019013392079607681 0.0018056091158598815 -0.004390396267978993 0.001997066241774179 0.0019013392079607681 0.001997066241774179 -0.004183965638726643" pbc="T T T"
Si       2.89571356      -0.03468208       5.34084852
Si       5.18696396       3.15409771       0.24102980
Si      -0.17676558       5.18453655       3.16233419
Si       3.20901719       4.60308860      -0.03301881
Si      -0.42773784       3.19187015       4.59524879
Si       4.44003826      -0.21006829       3.42479747
Si       3.18218517       2.19221599       4.29427265
Si       4.01418049       3.38328383       2.41094101
Si       2.03338821       4.11894597       3.50321388
Si       4.85723056       5.10177834       5.37226528
10
Lattice="6.048180413088635 -0.2898331792061953 -0.3051996041406587 -0.5863362537102783 6.026665693285381 -0.30519960414049685 -0.5863362537101083 -0.6158566202758867 6.002879875547493" Properties=species:S:1:pos:R:3 unique_starting_index=202 config_type=initial n_minim_iter=13 stress="-0.006844675133541985 0.0037404417753715506 0.003938753155454488 0.0037404417753715506 -0.006477060803824615 0.004137058200085444 0.003938753155454488 0.004137058200085444 -0.006049425751148636" pbc="T T T"
Si       3.00274317      -0.04080657       5.36824274
Si       5.20935128       3.26235659       0.23632742
Si      -0.18813584       5.20639215       3.27020606
Si       3.19720135       4.54615703      -0.03608273
Si      -0.42727910       3.18006260       4.53823495
Si       4.38375523      -0.21237477       3.41006292
Si       3.16311758       2.18152772       4.32174158
Si       4.04306661       3.36561271       2.40168478
Si       2.02364868       4.14738834       3.48508856
Si       4.90859831       5.15573231       5.42907980
10
Lattice="6.041380657339729 -0.33784529864594576 -0.35575723831873846 -0.6339567677156754 6.017517636813665 -0.35575723831851364 -0.6339567677154406 -0.6658746920317802 5.991134501619159" Properties=species:S:1:pos:R:3 unique_starting_index=202 config_type=initial n_minim_iter=14 stress="-0.0038927370128570794 0.0019881323466064524 0.0020935394864899353 0.0019881323466064524 -0.0036973413927989672 0.002198943258933097 0.0020935394864899353 0.002198943258933097 -0.0034700433537374707" pbc="T T T"
Si       3.08340108      -0.14432782       5.36380698
Si       5.20630475       3.34296212       0.13271520
Si      -0.29549112       5.19806644       3.34535624
Si       3.11521146       4.42470283      -0.12074801
Si      -0.50144419       3.09432926       4.41257268
Si       4.26647158      -0.29239274       3.31795785
Si       3.09545327       2.04584369       4.25520436
Si       3.98701405       3.29511230       2.26274732
Si       1.89144923       4.08477180       3.40751092
Si       4.85413353       5.09852538       5.36883986
10
Lattice="6.035279077405074 -0.4082691091357768 -0.4299147904059507 -0.7039962292917029 6.007966920413371 -0.4299147904056464 -0.7039962292913824 -0.7394404417516801 5.977768904607591" Properties=species:S:1:pos:R:3 unique_starting_index=202 config_type=initial n_minim_iter=15 stress="-0.003051267972010388 0.0001201478287014354 0.00012651784677776936 0.0001201478287014354 -0.0030394597241694206 0.0001328876613524718 0.00012651784677776936 0.0001328876613524718 -0.0030257235330618812" pbc="T T T"
Si       3.15915812      -0.30435566       5.37430210
Si       5.22130481       3.41954768      -0.02655764
Si      -0.45904435       5.20504752       3.41361893
Si       2.98835520       4.29622479      -0.24128909
Si      -0.60882991       2.96204295       4.27804421
Si       4.14437465      -0.40590793       3.17890423
Si       2.99574870       1.87538541       4.14640129
Si       3.89216812       3.19062664       2.08690043
Si       1.72609002       3.98168559       3.29408827
Si       4.76420575       5.00406999       5.26937662
10
Lattice="6.034410074065594 -0.4420953746768002 -0.465534462663483 -0.7377390752270672 6.005438728284423 -0.46553446266313997 -0.7377390752267066 -0.7748821442299834 5.973405587908757" Properties=species:S:1:pos:R:3 unique_starting_index=202 config_type=initial n_minim_iter=16 stress="0.0009487285964839266 -0.001397172931186511 -0.0014712484839791734 -0.001397172931186511 0.0008114130542465214 -0.001545321670279372 -0.0014712484839791734 -0.001545321670279372 0.0006516778796564672" pbc="T T T"
Si       3.18087973      -0.36670618       5.37666527
Si       5.22581018       3.44151690      -0.08870307
Si      -0.52238585       5.20644569       3.43235125
Si       2.91732223       4.24428951      -0.29107202
Si      -0.65232279       2.88878700       4.22360864
Si       4.09598835      -0.45183102       3.10293626
Si       2.97845729       1.78480429       4.08153820
Si       3.83298790       3.17040622       1.99309216
Si       1.63646675       3.91802983       3.26905293
Si       4.71931559       4.95691974       5.21972654
10
Lattice="6.028631255934971 -0.45524263032212364 -0.47937876175127525 -0.75058685390224 5.999021590830307 -0.4793787617509011 -0.7505868539018449 -0.7883767721041333 5.966282436297601" Properties=species:S:1:pos:R:3 unique_starting_index=202 config_type=initial n_minim_iter=17 stress="0.008516963954581859 -0.002017339232469949 -0.002124294868010303 -0.002017339232469949 0.008318697852798417 -0.0022312470866389126 -0.002124294868010303 -0.0022312470866389126 0.008088060665867026" pbc="T T T"
Si       3.19658506      -0.37952236       5.39121698
Si       5.24021484       3.45794903      -0.10075109
Si      -0.53595742       5.22020082       3.44813963
Si       2.83712019       4.21511559      -0.29909027
Si      -0.65488029       2.80836251       4.19405975
Si       4.07078602      -0.45563006       3.02109381
Si       2.99481651       1.74920735       4.01742605
Si       3.77007055       3.18369340       1.95423355
Si       1.60010978       3.85324996       3.28031672
Si       4.70440105       4.94125430       5.20323055
10
Lattice="6.000161970931949 -0.41366669575660325 -0.43559854719500696 -0.7076637184402512 5.97262721707958 -0.4355985471946489 -0.7076637184398731 -0.7432925785718564 5.942182941576133" Properties=species:S:1:pos:R:3 unique_starting_index=202 config_type=initial n_minim_iter=18 stress="0.005208907691968577 0.0005383802433524116 0.0005669241789305899 0.0005383802433524116 0.0052618202365767655 0.0005954672026164208 0.0005669241789305899 0.0005954672026164208 0.005323371860033314" pbc="T T T"
Si       3.19658130      -0.29884272       5.39305271
Si       5.23788687       3.45783087      -0.02008424
Si      -0.45537483       5.22182991       3.45218520
Si       2.82659029       4.23021079      -0.22318166
Si      -0.57942560       2.80152779       4.21305281
Si       4.08637984      -0.37931804       3.01524852
Si       3.01081103       1.87095696       4.02950819
Si       3.77506053       3.19995243       2.07644448
Si       1.72092762       3.86418301       3.30286194
Si       4.74883281       4.98792307       5.25237362
10
Lattice="5.9826163416775175 -0.38512235667299616 -0.40554083947283276 -0.6782926195400799 5.956503726482003 -0.4055408394724732 -0.6782926195397012 -0.7124427281865402 5.927632358296917" Properties=species:S:1:pos:R:3 unique_starting_index=202 config_type=initial n_minim_iter=19 stress="-0.002274839736994817 0.0018350983724184492 0.0019323919309550493 0.0018350983724184492 -0.0020944844477924136 0.002029682381255521 0.0019323919309550493 0.002029682381255521 -0.0018846823879617419" pbc="T T T"
Si       3.24630230      -0.25946843       5.39773978
Si       5.23809185       3.50762193       0.01947949
Si      -0.41848836       5.22384775       3.50395197
Si       2.81684963       4.22156227      -0.19806013
Si      -0.55344386       2.79305212       4.20571246
Si       4.07821983      -0.35370593       3.00640528
Si       3.03235870       1.93107424       4.06342954
Si       3.80473907       3.22298451       2.13823247
Si       1.77991486       3.89679603       3.32905249
Si       4.79143777       5.03267307       5.29949618
10
Lattice="5.995398546979612 -0.33772833189509 -0.3556340702048434 -0.6315830814922452 5.971596685515759 -0.35563407020451654 -0.631583081491901 -0.6633814974426523 5.94528111658349" Properties=species:S:1:pos:R:3 unique_starting_index=202 config_type=initial n_minim_iter=20 stress="-0.00863869770637751 0.0021664417204169035 0.002281302497098099 0.0021664417204169035 -0.008425777664107362 0.0023961596043225774 0.002281302497098099 0.0023961596043225774 -0.008178093974623777" pbc="T T T"
Si       3.28572518      -0.17239851       5.40228010
Si       5.23619707       3.54699928       0.10666770
Si      -0.33345830       5.22612910       3.54777701
Si       2.86110342       4.27551319      -0.15347782
Si      -0.51392796       2.83930115       4.26189257
Si       4.12993369      -0.31160110       3.05549237
Si       3.11807304       2.04974724       4.17226438
Si       3.90297300       3.31362954       2.26236476
Si       1.89423787       4.00076638       3.42598374
Si       4.87370520       5.11908243       5.39048680
10
Lattice="6.033751323612049 -0.3157291154467653 -0.3324684955462761 -0.61149278180319 6.0109829884415475 -0.33246849554595326 -0.6114927818028513 -0.6422797081732043 5.985810602110099" Properties=species:S:1:pos:R:3 unique_starting_index=202 config_type=initial n_minim_iter=21 stress="-0.007058406261516395 -0.0009946459862480992 -0.0010473802968107512 -0.0009946459862480992 -0.007156161056136098 -0.0011001129226702563 -0.0010473802968107512 -0.0011001129226702563 -0.007269876364187237" pbc="T T T"
Si       3.37762505      -0.14855698       5.41816474
Si       5.24630176       3.63950659       0.13129733
Si      -0.31415607       5.23719451       3.64143226
Si       2.87177333       4.30126412      -0.14696221
Si      -0.50928010       2.85021233       4.28794547
Si       4.15512990      -0.30570948       3.06773372
Si       3.17504964       2.12586552       4.28974898
Si       4.01343904       3.37610326       2.34444549
Si       1.96746792       4.11496427       3.49261074
Si       4.94342709       5.19231462       5.46760164
