10
Lattice="5.28903926429343 -0.19282153366013385 0.16150934183933313 0.15042097171897803 7.232185280263282 -1.5563974409916483 0.599905535685508 1.8735464713270054 6.325302411148084" Properties=species:S:1:pos:R:3 unique_starting_index=87 config_type=initial n_minim_iter=1 energy=-1623.4295145696553 free_energy=-1623.4295145696553 pbc="T T T"
Si       2.87778888       6.96190739       3.03273274
Si       2.38467981       3.21258094       3.58178935
Si       4.14158238       4.07287751       0.75083107
Si       0.97749151       4.83515562       0.28346988
Si       1.90929906       1.74540620       5.38479713
Si       1.75809014       2.21183090      -0.52181443
Si       5.50269672       7.28502101       4.85865526
Si       2.46924012       4.98846007       2.03796756
Si       3.34408921       6.12953344       5.13966675
Si       5.44275507       3.89724781       3.50484884
10
Lattice="5.077027916456889 -0.26188089441788626 0.08425781877687685 0.07816775211009312 7.228908837555746 -1.739598148606195 0.454799375846294 1.6926875430575048 6.247206204155587" Properties=species:S:1:pos:R:3 unique_starting_index=87 config_type=initial n_minim_iter=2 stress="-0.021461866117793393 0.001081024449159549 -0.0005169525990302406 0.001081024449159549 -0.013521150788330459 0.0020101422256272442 -0.0005169525990302406 0.0020101422256272442 -0.013417537024984683" pbc="T T T"
Si       2.65309228       6.83334533       2.84400511
Si       2.15690384       3.02875686       3.41875217
Si       3.91464850       3.90308363       0.60773693
Si       0.89067846       4.79004196       0.05434822
Si       1.70989768       1.60983227       5.30767232
Si       1.63976264       2.25353319      -0.56917478
Si       5.19417317       7.01628797       4.54365389
Si       2.22895695       4.87964310       1.91321469
Si       3.07183757       5.86219663       4.87430954
Si       5.11423072       3.79781461       3.32520345
10
Lattice="4.992223605392554 -0.36060194672021917 -0.0024432857793230214 -0.018424572331110185 7.3989136345843765 -2.037554465481092 0.2975290862929951 1.480170207385811 6.287990578253355" Properties=species:S:1:pos:R:3 unique_starting_index=87 config_type=initial n_minim_iter=3 stress="-0.002274225398230442 0.0008114719318206827 -8.392833447006849e-05 0.0008114719318206827 0.0031586123254562044 -0.0021285228931083628 -8.392833447006849e-05 -0.0021285228931083628 0.0061622108720007385" pbc="T T T"
Si       2.46229098       6.81624236       2.65004743
Si       1.95536575       2.85317941       3.28736651
Si       3.76497807       3.76363505       0.44440070
Si       0.81447735       4.85080854      -0.25650550
Si       1.52545781       1.45673082       5.32926375
Si       1.54291196       2.36073361      -0.64735070
Si       4.99464328       6.81480331       4.22823947
Si       2.00468188       4.84182756       1.78932261
Si       2.84838367       5.63904479       4.63526950
Si       4.88239091       3.74850876       3.16546345
10
Lattice="4.9675254113619145 -0.4319253915951854 -0.05850550516936252 -0.09733142613524669 7.4019308559334345 -2.126472953475761 0.20181903925308547 1.376099982714933 6.183305322116971" Properties=species:S:1:pos:R:3 unique_starting_index=87 config_type=initial n_minim_iter=4 stress="-0.0036477836179279084 -0.0003082865002212467 -0.0007510115096259473 -0.0003082865002212467 0.0022432576939192756 0.000579541900051729 -0.0007510115096259473 0.000579541900051729 -0.0016742332587244549" pbc="T T T"
Si       2.34678151       6.74463601       2.52430724
Si       1.83219002       2.73520275       3.15676232
Si       3.67451608       3.61528218       0.37016828
Si       0.76681351       4.82655778      -0.40431625
Si       1.41509670       1.38345858       5.22976514
Si       1.48259520       2.39387067      -0.66371715
Si       4.88361351       6.62215068       3.97062656
Si       1.86104266       4.75694886       1.70142494
Si       2.72776925       5.45697118       4.41677452
Si       4.75878326       3.68937539       3.01935629
10
Lattice="4.984112055396211 -0.5112798637078189 -0.11351416695134252 -0.1874019165705105 7.301884969464936 -2.3041751598318436 0.10475063160807405 1.1726547630136683 6.105908606738434" Properties=species:S:1:pos:R:3 unique_starting_index=87 config_type=initial n_minim_iter=5 stress="-0.0061329728356192435 -0.0022254969930225383 0.0016215665775493563 -0.0022254969930225383 -0.0005281864448041259 -0.0008936389789337947 0.0016215665775493563 -0.0008936389789337947 -0.002605185910410676" pbc="T T T"
Si       2.26031012       6.54279356       2.36537864
Si       1.69427712       2.53284624       3.01814953
Si       3.59779609       3.35160853       0.28584994
Si       0.73471432       4.70546336      -0.59474180
Si       1.30281697       1.23479598       5.14505302
Si       1.41713885       2.40702805      -0.69317594
Si       4.81429983       6.24173853       3.62368178
Si       1.70349668       4.54650435       1.57809081
Si       2.65608302       5.09365689       4.14868010
Si       4.66762430       3.54449217       2.85463341
10
Lattice="5.134442417817852 -0.5275264348449686 -0.2047768310464144 -0.18418705155038717 7.125974186460726 -2.327500936700432 0.007154475254171577 1.0845805244004674 5.9925322210007375" Properties=species:S:1:pos:R:3 unique_starting_index=87 config_type=initial n_minim_iter=6 stress="-0.0008416551771707989 -0.0024576107235737164 -0.0006677694791950376 -0.0024576107235737164 -0.003440927002473847 0.0023198610296689547 -0.0006677694791950376 0.0023198610296689547 -0.005375408118573796" pbc="T T T"
Si       2.32171181       6.38679792       2.27830590
Si       1.62425579       2.43348927       2.90554280
Si       3.65634662       3.14883159       0.23664942
Si       0.77897799       4.55410613      -0.64785145
Si       1.23067503       1.18977922       5.01353519
Si       1.43221602       2.39189753      -0.69059872
Si       4.91313906       5.97745282       3.32139211
Si       1.65833478       4.36556600       1.48804352
Si       2.72471379       4.83380055       3.92813611
Si       4.74464886       3.47551382       2.69414280
10
Lattice="5.222249397270325 -0.4737752840583447 -0.2051578026332736 -0.1088559103331658 7.073315308323458 -2.364922261091215 0.034891178631595444 1.03746819182308 5.962729771446801" Properties=species:S:1:pos:R:3 unique_starting_index=87 config_type=initial n_minim_iter=7 stress="0.00492896765111786 -4.9321724899111905e-05 0.0010871006275960191 -4.9321724899111905e-05 -0.0014478356794855982 -0.0003766749189344511 0.0010871006275960191 -0.0003766749189344511 -0.00315720031998857" pbc="T T T"
Si       2.49556030       6.36835468       2.24651945
Si       1.64840967       2.44465189       2.89434085
Si       3.73550518       3.12571408       0.23739556
Si       0.84956041       4.51413724      -0.64523043
Si       1.27304424       1.17427122       4.96592848
Si       1.48967366       2.39214022      -0.69226280
Si       5.05787478       5.92899071       3.20474719
Si       1.73244102       4.31748177       1.43158996
Si       2.88835909       4.74142414       3.87423105
Si       4.88644880       3.49955418       2.65728244
10
Lattice="5.215409883870467 -0.38745086304086546 -0.2111515786665197 0.01002378460548548 7.0809801438301125 -2.3319045454759757 0.0560123701581974 1.1060389176925927 6.0941674173032245" Properties=species:S:1:pos:R:3 unique_starting_index=87 config_type=initial n_minim_iter=8 stress="0.008109460190198271 0.004416089991733571 0.002071611794273826 0.004416089991733571 0.013049010885550667 -0.002556017809646034 0.002071611794273826 -0.002556017809646034 0.004283038790846229" pbc="T T T"
Si       2.67574834       6.47421001       2.36974104
Si       1.65374912       2.59685333       3.03166312
Si       3.76166510       3.22575625       0.28740650
Si       0.88691843       4.56864767      -0.55240622
Si       1.29783366       1.24387659       5.04464050
Si       1.57010823       2.37864883      -0.68036976
Si       5.07348286       6.05961005       3.28496714
Si       1.83783462       4.39358854       1.46286959
Si       3.00507685       4.79840586       4.04444640
Si       4.96768649       3.62085407       2.74217937
10
Lattice="5.20832156851361 -0.39990292584667425 -0.2634383466434454 0.004742893119916398 6.953673536383981 -2.371279838215528 -0.016269938732458106 1.0597674420130399 6.187477037986143" Properties=species:S:1:pos:R:3 unique_starting_index=87 config_type=initial n_minim_iter=9 stress="0.003591268594336906 0.0037176542341706164 0.002322994726145209 0.0037176542341706164 0.0010339346680087065 -0.005562522969898626 0.002322994726145209 -0.005562522969898626 0.007672038257445406" pbc="T T T"
Si       2.67731694       6.34105019       2.40478551
Si       1.56284783       2.56536296       3.08529886
Si       3.71636037       3.11982568       0.28084995
Si       0.85244670       4.49469975      -0.57904209
Si       1.22336533       1.20096089       5.09106746
Si       1.57219499       2.33273084      -0.68843071
Si       4.98180462       5.88042299       3.22529943
Si       1.79663311       4.30279519       1.46164496
Si       2.96920201       4.61328977       4.07813724
Si       4.91617034       3.55758538       2.73132304
10
Lattice="5.192023650484409 -0.45685934224986424 -0.3135110105021028 -0.06709438863745985 6.864696505557129 -2.208096848867844 -0.09626483670915784 1.1968950627180324 6.288553970330641" Properties=species:S:1:pos:R:3 unique_starting_index=87 config_type=initial n_minim_iter=10 stress="-0.0040035502746333974 -0.003218825139972896 0.0004004181206445518 -0.003218825139972896 0.0011697060035294068 0.0013537518585934696 0.0004004181206445518 0.0013537518585934696 0.004394932262502632" pbc="T T T"
Si       2.59923738       6.30812963       2.59216607
Si       1.47756034       2.66330889       3.22521911
Si       3.65024861       3.09864181       0.34015228
Si       0.73151922       4.48148777      -0.46049126
Si       1.15119598       1.26394504       5.14956641
Si       1.56850612       2.26353690      -0.64082644
Si       4.78669156       5.86531765       3.36368605
Si       1.75563261       4.33255627       1.56696498
Si       2.84740939       4.61256867       4.26648264
Si       4.81847532       3.54709518       2.80499537
10
Lattice="5.20695806663728 -0.4412067758605766 -0.3796960090227311 -0.027757433614816245 6.828682455949957 -2.1866746327420254 -0.1660115853385323 1.195344163979204 6.215735669184366" Properties=species:S:1:pos:R:3 unique_starting_index=87 config_type=initial n_minim_iter=11 stress="-0.005796699180429488 -0.004391286687124177 -0.004936606138506227 -0.004391286687124177 -0.007737636166160696 -0.0003210505974051618 -0.004936606138506227 -0.0003210505974051618 -0.002140707382219245" pbc="T T T"
Si       2.59492020       6.25115679       2.54152525
Si       1.46333793       2.66430716       3.18074723
Si       3.68271136       3.10226994       0.28283761
Si       0.69554145       4.47612140      -0.51784059
Si       1.10770231       1.21841452       5.06434264
Si       1.57039065       2.27043902      -0.62317190
Si       4.79305801       5.83870176       3.25120485
Si       1.77670444       4.36495617       1.53691872
Si       2.79991667       4.57524949       4.17788259
Si       4.78762785       3.56649177       2.68269221
10
Lattice="5.240806999505862 -0.34354946605416636 -0.30015335814736704 0.07991692404899263 6.828790368153029 -2.0746422775688833 -0.027547695638801783 1.288877818987701 6.166805652827017" Properties=species:S:1:pos:R:3 unique_starting_index=87 config_type=initial n_minim_iter=12 stress="-0.004460722881821628 0.004431761698012936 -0.0011508493104193458 0.004431761698012936 -0.005749101276879446 0.0056000474630857515 -0.0011508493104193458 0.0056000474630857515 -0.004364934974766696" pbc="T T T"
Si       2.80143844       6.33499251       2.66012199
Si       1.61519183       2.77965704       3.23477246
Si       3.81627400       3.22936548       0.37258991
Si       0.71566497       4.50700269      -0.45792510
Si       1.25774604       1.25754665       5.02764501
Si       1.61223886       2.30350850      -0.52579621
Si       5.03251326       6.00846107       3.36061658
Si       1.95980883       4.49871798       1.59889888
Si       2.98371808       4.69744158       4.25127092
Si       4.94938268       3.72290376       2.74357049
10
Lattice="5.281216059985574 -0.36728049690559034 -0.2703865256923479 0.04513996856536364 6.936964630518369 -2.118496418926572 0.0058235461293739185 1.2550282383829174 6.074154114379052" Properties=species:S:1:pos:R:3 unique_starting_index=87 config_type=initial n_minim_iter=13 stress="0.001353263871877097 1.6890013837529984e-05 -0.0006028595473660552 1.6890013837529984e-05 0.0020374532958900944 -0.0006558819704547591 -0.0006028595473660552 -0.0006558819704547591 -0.0010327464254729479" pbc="T T T"
Si       2.85941330       6.38380839       2.62326764
Si       1.62299519       2.81533289       3.19587463
Si       3.84360761       3.24214166       0.37527496
Si       0.64273932       4.56220799      -0.50663719
Si       1.29652941       1.19715140       4.93347076
Si       1.59061044       2.34813631      -0.47446005
Si       5.09963891       6.01982566       3.20497120
Si       1.97830909       4.57575552       1.52733651
Si       3.04075716       4.64642355       4.14358211
Si       4.98531582       3.77946217       2.66327479
10
Lattice="5.353197929012105 -0.36652093429754373 -0.20852520448171552 0.029015728512576545 6.931371982682674 -2.092222805680814 0.0900615999284752 1.262556281637046 6.0234459423336" Properties=species:S:1:pos:R:3 unique_starting_index=87 config_type=initial n_minim_iter=14 stress="0.005722954054503216 -0.002284591958589337 0.004419732904460746 -0.002284591958589337 0.0008537572937869612 -0.001500035039665714 0.004419732904460746 -0.001500035039665714 0.002742641613036457" pbc="T T T"
Si       2.96406546       6.37974067       2.67996339
Si       1.69573919       2.85750810       3.21455596
Si       3.91706994       3.25966445       0.43579158
Si       0.57949202       4.53827261      -0.45545089
Si       1.39669585       1.17220423       4.88251410
Si       1.58779590       2.33815922      -0.38996913
Si       5.24780904       6.02832952       3.17575088
Si       2.05702628       4.61322291       1.50200902
Si       3.16239565       4.60410561       4.13450096
Si       5.10139624       3.79669864       2.66932226
10
Lattice="5.376708653769928 -0.3290095815090638 -0.2408473261946828 0.09143620728593042 6.9670509062324335 -2.080663544317534 0.0694438363331957 1.2763926745679721 5.971760993184297" Properties=species:S:1:pos:R:3 unique_starting_index=87 config_type=initial n_minim_iter=15 stress="0.0018325789241170221 0.0012660779347404758 0.002226162276571675 0.0012660779347404758 0.003905869023743259 -0.0026318598342415446 0.002226162276571675 -0.0026318598342415446 0.005130198556941303" pbc="T T T"
Si       3.02796125       6.44326485       2.67104637
Si       1.70428535       2.92496445       3.19175277
Si       3.95681294       3.32134961       0.42680934
Si       0.55037968       4.53988133      -0.41404361
Si       1.40049218       1.18112453       4.80852702
Si       1.58811024       2.34992475      -0.33991049
Si       5.32786322       6.11542922       3.04302682
Si       2.11076413       4.68396047       1.42352771
Si       3.20990556       4.60646530       4.06052525
Si       5.14811817       3.86509614       2.58598701
10
Lattice="5.412861802067928 -0.34078200927982927 -0.2578160568339072 0.0801594089002403 6.956247034459487 -2.0542371341243326 0.05100128497497931 1.2847749745208206 5.918882297489515" Properties=species:S:1:pos:R:3 unique_starting_index=87 config_type=initial n_minim_iter=16 stress="0.0033442504915316526 -0.0018251527984556723 0.001794756828608984 -0.0018251527984556723 0.0028896894983660693 -0.0016130996967531868 0.001794756828608984 -0.0016130996967531868 0.0015300885286151076" pbc="T T T"
Si       3.01361308       6.43693075       2.65362140
Si       1.70561167       2.92831615       3.15859061
Si       3.97183914       3.32204711       0.42192303
Si       0.51772519       4.51503305      -0.37797887
Si       1.40200452       1.19196514       4.75500852
Si       1.57970687       2.33281198      -0.31937503
Si       5.36216756       6.11969918       2.98497389
Si       2.11634629       4.68556923       1.37913836
Si       3.21138478       4.58788067       4.01134821
Si       5.16905671       3.84431772       2.54320244
10
Lattice="5.424725502289049 -0.32186739143925736 -0.3028711071415391 0.11688550528883969 6.904628414754518 -2.026355231104722 0.00578986916434821 1.29903108427535 5.915424509678549" Properties=species:S:1:pos:R:3 unique_starting_index=87 config_type=initial n_minim_iter=17 stress="-0.001122254693016069 0.000371266377212191 -0.00046985534702967863 0.000371266377212191 -0.0003727956512170027 -0.00011962447129751944 -0.00046985534702967863 -0.00011962447129751944 -0.00010033553031294569" pbc="T T T"
Si       3.01217470       6.42458376       2.65622647
Si       1.68910768       2.93254489       3.14616341
Si       3.97098731       3.32369488       0.41661594
Si       0.51330520       4.47280317      -0.33309982
Si       1.37649279       1.23155303       4.73495518
Si       1.58556524       2.30661527      -0.31184410
Si       5.38150161       6.12611251       2.94177421
Si       2.13184472       4.67132947       1.33871828
Si       3.20542823       4.56018310       3.99684733
Si       5.17563790       3.83298573       2.51578413
10
Lattice="5.441838308023729 -0.31019888097488835 -0.3498537475791917 0.1435106010218072 6.840045104549401 -1.9841757132437043 -0.04332115080251502 1.3210010663862648 5.9088276975473715" Properties=species:S:1:pos:R:3 unique_starting_index=87 config_type=initial n_minim_iter=18 stress="-0.005404737569376593 -0.0007387169959959821 -0.001476910558141489 -0.0007387169959959821 -0.004083595551448846 0.001045017692816429 -0.001476910558141489 0.001045017692816429 -0.002661134275963515" pbc="T T T"
Si       2.99422716       6.39439126       2.66718220
Si       1.68058284       2.93235956       3.12055647
Si       3.95692170       3.33086740       0.42700034
Si       0.46733092       4.42201362      -0.27632514
Si       1.35877048       1.29737358       4.71310364
Si       1.59081458       2.25871635      -0.30132306
Si       5.41119789       6.13718467       2.91439948
Si       2.17054792       4.66987379       1.27106961
Si       3.18714743       4.50000732       4.00029339
Si       5.17185475       3.79901104       2.50185202
10
Lattice="5.44483991523466 -0.2840662127275872 -0.38845994076539053 0.18985791299651267 6.826704829679354 -1.972849195052332 -0.07944344057033985 1.3315948431506277 5.9067257726803435" Properties=species:S:1:pos:R:3 unique_starting_index=87 config_type=initial n_minim_iter=19 stress="0.00033563770441633447 0.0008677571344020616 -0.0030968021233265166 0.0008677571344020616 -0.0024717885335767075 2.052579939644961e-05 -0.0030968021233265166 2.052579939644961e-05 -0.0022711594448054807" pbc="T T T"
Si       2.99920083       6.40486336       2.65806587
Si       1.67657975       2.91118073       3.05208403
Si       3.93758108       3.33346494       0.43594713
Si       0.47597870       4.41987848      -0.30247934
Si       1.33659223       1.37961838       4.72311548
Si       1.60585928       2.25947671      -0.32346410
Si       5.46391742       6.17768807       2.91207217
Si       2.20309509       4.69950328       1.21928051
Si       3.18546155       4.46004871       3.99669940
Si       5.15099915       3.82046273       2.51597327
10
Lattice="5.432980640856455 -0.27487784728835285 -0.3743370957493702 0.197662395286551 6.838294863295651 -1.9502875734948124 -0.05992319210345965 1.3556804980570514 5.9118804172849195" Properties=species:S:1:pos:R:3 unique_starting_index=87 config_type=initial n_minim_iter=20 stress="0.0010475973893003738 0.0006332405665556856 -0.0011172234880436772 0.0006332405665556856 0.00023916208696374885 0.0008429541027464618 -0.0011172234880436772 0.0008429541027464618 -2.418101758132303e-05" pbc="T T T"
Si       3.02551262       6.42633690       2.70130168
Si       1.68851099       2.93796895       3.05414448
Si       3.93597984       3.35051049       0.46869431
Si       0.45070965       4.43546171      -0.30384944
Si       1.35460338       1.39999756       4.73509970
Si       1.60552937       2.27159093      -0.30299411
Si       5.48499965       6.21422469       2.94534321
Si       2.22931947       4.75182766       1.22452056
Si       3.20346431       4.45520670       4.02622808
Si       5.14340509       3.86031540       2.55088410
10
Lattice="5.409141715256676 -0.275430881757952 -0.35302775200059006 0.19044730077123606 6.850288383084184 -1.9520076171401244 -0.03722558482050132 1.3553247062080134 5.907754734742305" Properties=species:S:1:pos:R:3 unique_starting_index=87 config_type=initial n_minim_iter=21 stress="0.0004442529305232774 -0.0002973562268885797 0.00048031403521435706 -0.0002973562268885797 0.0023572489307888615 0.00011599135262794083 0.00048031403521435706 0.00011599135262794083 0.0007512997754538579" pbc="T T T"
Si       3.03831222       6.42478080       2.72229190
Si       1.68661697       2.93857477       3.02994047
Si       3.92154121       3.34116840       0.49080541
Si       0.43606111       4.44931426      -0.32855132
Si       1.36830755       1.39693573       4.75307837
Si       1.60179998       2.28696837      -0.29995834
Si       5.47664130       6.21958825       2.96873103
Si       2.22928363       4.79367985       1.21512501
Si       3.21720349       4.42607655       4.03576077
Si       5.11536051       3.88121770       2.58853193
