16
Lattice="6.417345671969562 0.5683840750781917 1.5779698896198227 2.7365972264969147 4.340002281722955 0.9689021731869234 6.113947890466652 2.0245714422569456 14.060765493603693" Properties=species:S:1:pos:R:3 unique_starting_index=3 config_type=initial n_minim_iter=1 energy=-2606.3368505374483 free_energy=-2606.3368505374483 pbc="T T T"
Si       8.09426815       5.08174720       9.00597564
Si       9.63729252       3.18329540      14.92730232
Si       2.52302766       2.92286671       4.09900696
Si       6.22355419       3.27733142       2.87674738
Si       8.90416588       1.27546611       6.66683505
Si       9.69569206       3.29854524       9.21530928
Si       4.81109286       3.10625985       4.76536745
Si       8.55600883       3.46528685       3.37312560
Si       6.08477859       2.15893055      10.13045304
Si       7.93959976       1.72449628       8.78999164
Si      10.72055213       4.18157554      11.16120994
Si       4.82740291       0.86192093       5.68950046
Si       6.92221331       5.02771704      11.09986088
Si       6.99850806       2.96561534      12.16306430
Si       9.31090825       2.98600806      12.59196524
Si       5.82239192       1.37848988       1.49177882
16
Lattice="6.418964611340305 0.5661911931141738 1.5795046586836172 2.735710088263656 4.341114468127148 0.9698281965643578 6.114855555724963 2.0231529710857967 14.074720086460788" Properties=species:S:1:pos:R:3 unique_starting_index=3 config_type=initial n_minim_iter=2 stress="0.000608543663632663 -5.738959816099016e-05 -8.609537086152649e-05 -5.738959816099016e-05 0.0007557727475245176 8.482403174274884e-05 -8.609537086152649e-05 8.482403174274884e-05 0.0009367114545880634" pbc="T T T"
Si       8.09471275       5.08153638       9.01453265
Si       9.63900152       3.18116217      14.94239839
Si       2.52297833       2.92328943       4.10343676
Si       6.22446822       3.27656212       2.87952561
Si       8.90610653       1.27296500       6.67346144
Si       9.69723177       3.29618585       9.22457972
Si       4.81085325       3.10589058       4.76934950
Si       8.55719885       3.46358762       3.37590873
Si       6.08573925       2.15820787      10.14042515
Si       7.94144313       1.72227764       8.79866929
Si      10.72208323       4.17955704      11.17216507
Si       4.82853393       0.86017318       5.69582320
Si       6.92142794       5.02753769      11.11094967
Si       6.99952682       2.96394946      12.17540434
Si       9.31211758       2.98368466      12.60421200
Si       5.82301112       1.37668574       1.49325802
16
Lattice="6.408951898256005 0.5551624936740377 1.5820323873397215 2.725384112518918 4.331247422720392 0.9692308502034728 6.10785677503491 2.005498797544673 14.079120772436449" Properties=species:S:1:pos:R:3 unique_starting_index=3 config_type=initial n_minim_iter=3 stress="-0.0016447573272095196 -0.0006065565284597035 -0.00018422752200091395 -0.0006065565284597035 -0.0004039454116518452 -0.00016509472919781892 -0.00018422752200091395 -0.00016509472919781892 0.0004542949952524985" pbc="T T T"
Si       8.07898254       5.06184853       9.01526373
Si       9.62667139       3.15679143      14.94960989
Si       2.51854357       2.91389976       4.10626770
Si       6.21365948       3.26190464       2.88088997
Si       8.89260181       1.25722602       6.67800573
Si       9.68138308       3.27236993       9.22992394
Si       4.79819780       3.09252330       4.76626400
Si       8.54083093       3.44422922       3.37534627
Si       6.07770639       2.14593903      10.14347824
Si       7.93175475       1.70446327       8.80270989
Si      10.70441770       4.15396604      11.17619629
Si       4.82274193       0.84760424       5.70285197
Si       6.90261296       5.00639334      11.11438300
Si       6.99023712       2.94224683      12.18106846
Si       9.29672094       2.95959911      12.60781070
Si       5.80945199       1.36405953       1.49537791
16
Lattice="6.423598820905932 0.5586785260528063 1.5835745709527527 2.734000886217457 4.33214803821105 0.9698822128210328 6.129395369300766 2.0097385762368023 14.065003161690504" Properties=species:S:1:pos:R:3 unique_starting_index=3 config_type=initial n_minim_iter=4 stress="2.1922153531034875e-05 -0.0002915978581272362 0.00022002014747500099 -0.0002915978581272362 -0.0002356193953980473 -0.00011141865413893944 0.00022002014747500099 -0.00011141865413893944 -0.00017194602064682244" pbc="T T T"
Si       8.10409362       5.06752419       9.00798583
Si       9.65719696       3.16296946      14.93699407
Si       2.52844434       2.91511434       4.10350345
Si       6.23119239       3.26491531       2.88076037
Si       8.91523680       1.26328370       6.67467711
Si       9.70878315       3.27752185       9.22451062
Si       4.81159284       3.09494493       4.76101641
Si       8.56301478       3.44816200       3.37492752
Si       6.09748745       2.15183798      10.13403827
Si       7.95479127       1.70912671       8.79610726
Si      10.73563925       4.16037029      11.16810328
Si       4.83685261       0.84969980       5.70052631
Si       6.92337390       5.01022462      11.10486656
Si       7.01344200       2.94552612      12.17072013
Si       9.32404154       2.96481983      12.59699388
Si       5.82186694       1.36641721       1.49684800
16
Lattice="6.422437877895355 0.565310765798593 1.580159642493431 2.7371396451602514 4.336583247694506 0.9696507553274135 6.122639311642741 2.020357202733276 14.062235991680424" Properties=species:S:1:pos:R:3 unique_starting_index=3 config_type=initial n_minim_iter=5 stress="-5.805786249257271e-05 0.00016556533444815914 -0.00010165898479675357 0.00016556533444815914 -2.9061259210255807e-05 2.2515297551452475e-05 -0.00010165898479675357 2.2515297551452475e-05 3.30197275099771e-05" pbc="T T T"
Si       8.10313549       5.07984370       9.00536769
Si       9.65060650       3.17747716      14.93238204
Si       2.52849903       2.91986210       4.10267380
Si       6.23219807       3.27260062       2.87809902
Si       8.91167649       1.27388365       6.66998601
Si       9.70541135       3.29067967       9.22025067
Si       4.81117619       3.10198154       4.75902301
Si       8.56343433       3.45817897       3.37140950
Si       6.09297192       2.16185573      10.13109146
Si       7.95048923       1.71979951       8.79234100
Si      10.73206812       4.17523986      11.16339815
Si       4.83374521       0.85609484       5.69831864
Si       6.92061674       5.02150264      11.10233286
Si       7.00841974       2.95653447      12.16795659
Si       9.31835122       2.97840952      12.59295005
Si       5.82140895       1.37268744       1.49395192
16
Lattice="6.423208913002302 0.5641200605329056 1.580578340510382 2.7362516675294306 4.339321802250149 0.9705949653541045 6.124907357657911 2.023136624664576 14.05720167557746" Properties=species:S:1:pos:R:3 unique_starting_index=3 config_type=initial n_minim_iter=6 stress="0.00022045784160971017 -5.0605637643807703e-05 -8.178814912565003e-06 -5.0605637643807703e-05 0.0007623181500807797 6.757552719067724e-05 -8.178814912565003e-06 6.757552719067724e-05 -0.0002553604166198625" pbc="T T T"
Si       8.10539437       5.08437615       9.00608719
Si       9.65290819       3.17978503      14.92645320
Si       2.52794821       2.92265881       4.10016898
Si       6.23344994       3.27284439       2.87773010
Si       8.91381479       1.27259170       6.66795726
Si       9.70653827       3.29283295       9.21882050
Si       4.81203369       3.10419399       4.75783092
Si       8.56450704       3.45819111       3.37342920
Si       6.09416718       2.16540279      10.12687000
Si       7.95217652       1.72112969       8.79059010
Si      10.73358603       4.17789471      11.16117034
Si       4.83419575       0.85642110       5.69679562
Si       6.92110718       5.02434410      11.09811905
Si       7.00936169       2.95856333      12.16510879
Si       9.31972799       2.98160333      12.59032922
Si       5.82182965       1.37226971       1.49421951
16
Lattice="6.427855724927401 0.5628779531999102 1.584931389664406 2.7381601207585127 4.33115292016468 0.973091363540729 6.134242269827424 2.0201261864521425 14.07552177242409" Properties=species:S:1:pos:R:3 unique_starting_index=3 config_type=initial n_minim_iter=7 stress="0.0005901135882649091 8.879811672231097e-05 0.00013760245497025384 8.879811672231097e-05 -0.00018873386847345015 0.0002880627593072203 0.00013760245497025384 0.0002880627593072203 0.0004263182066031238" pbc="T T T"
Si       8.11643936       5.07732349       9.02288894
Si       9.66479533       3.17385920      14.94590677
Si       2.53059975       2.91789559       4.10437115
Si       6.24051948       3.26512020       2.88237807
Si       8.92257710       1.26927057       6.67808100
Si       9.71560724       3.28756416       9.23420986
Si       4.81710690       3.09871268       4.76383298
Si       8.57227497       3.45026604       3.38201125
Si       6.10135036       2.16486081      10.13920168
Si       7.96096731       1.71889328       8.80462536
Si      10.74452183       4.17096257      11.17853488
Si       4.83865706       0.85455684       5.70615512
Si       6.92768693       5.01361668      11.11208381
Si       7.01746143       2.95208272      12.18327123
Si       9.32928156       2.97754439      12.60929153
Si       5.82531275       1.36909553       1.49814728
16
Lattice="6.426035294083412 0.5606502035156999 1.5828756024404607 2.7367757005066147 4.3307510762636 0.9683198045370013 6.130181654788956 2.006619441181928 14.068670684465516" Properties=species:S:1:pos:R:3 unique_starting_index=3 config_type=initial n_minim_iter=8 stress="0.00010757925655698857 6.177577801328959e-05 -5.744010649307514e-05 6.177577801328959e-05 6.059739645730347e-05 -0.00041369398472106226 -5.744010649307514e-05 -0.00041369398472106226 4.4434351802511766e-05" pbc="T T T"
Si       8.11355065       5.07043785       9.01469198
Si       9.66004893       3.15910945      14.93717212
Si       2.52941149       2.91445993       4.10034073
Si       6.23949117       3.26165134       2.87709838
Si       8.91927886       1.26229605       6.67349289
Si       9.71143691       3.27838481       9.22762101
Si       4.81428507       3.09409000       4.75704265
Si       8.56979084       3.44593596       3.37588656
Si       6.09787416       2.15705175      10.13280438
Si       7.95803546       1.71026584       8.79926357
Si      10.73949977       4.16035251      11.16971465
Si       4.83636466       0.84819342       5.70446943
Si       6.92141931       5.00296840      11.10282324
Si       7.01331998       2.93916262      12.17663316
Si       9.32392537       2.96510045      12.60121389
Si       5.82245072       1.36652055       1.49547037
16
Lattice="6.424322321737021 0.5604926085756492 1.5831134043767683 2.7352846348884823 4.331543224559038 0.9708402379637335 6.12888259547923 2.014370968299599 14.066441402035075" Properties=species:S:1:pos:R:3 unique_starting_index=3 config_type=initial n_minim_iter=9 stress="-0.00017056282427999902 -4.899101810917959e-05 -3.856324399864093e-05 -4.899101810917959e-05 3.122777849046205e-05 -2.665361425634395e-05 -3.856324399864093e-05 -2.665361425634395e-05 -0.0001252496290666574" pbc="T T T"
Si       8.11125304       5.07585940       9.01567641
Si       9.65788138       3.16675237      14.93577383
Si       2.52869906       2.91690466       4.10158175
Si       6.23775239       3.26267876       2.87867333
Si       8.91701976       1.26516180       6.67309074
Si       9.70883916       3.28274180       9.22784902
Si       4.81247933       3.09632155       4.75718844
Si       8.56714710       3.44677461       3.37707839
Si       6.09632184       2.16299780      10.13164415
Si       7.95634163       1.71444272       8.79823976
Si      10.73622481       4.16607710      11.16988011
Si       4.83522555       0.85082284       5.70428896
Si       6.91839346       5.00923779      11.10328372
Si       7.01156307       2.94538391      12.17557458
Si       9.32139580       2.97139950      12.59977975
Si       5.82033640       1.36611796       1.49618415
16
Lattice="6.425633822423117 0.5623829481148761 1.5855239592309935 2.7369454467107333 4.331637646115274 0.9730057087021405 6.133930203370018 2.0190776866507227 14.073204745541842" Properties=species:S:1:pos:R:3 unique_starting_index=3 config_type=initial n_minim_iter=10 stress="6.891916305479668e-05 8.894619208440674e-05 0.00021788306170250429 8.894619208440674e-05 -8.123327766048614e-05 0.00021345202876702727 0.00021788306170250429 0.00021345202876702727 0.0001967947122552981" pbc="T T T"
Si       8.11730798       5.08042032       9.02353411
Si       9.66373431       3.17134421      14.94358672
Si       2.53039813       2.91808804       4.10465616
Si       6.24009883       3.26352192       2.88212400
Si       8.92058017       1.26814773       6.67828639
Si       9.71342664       3.28794801       9.23450036
Si       4.81615759       3.09738171       4.76115478
Si       8.57012721       3.44859640       3.38167475
Si       6.09957105       2.16660589      10.13688671
Si       7.96015849       1.71877079       8.80341778
Si      10.74008839       4.17175247      11.17834039
Si       4.83716187       0.85411092       5.70712171
Si       6.92322158       5.01264628      11.10962296
Si       7.01566460       2.94956217      12.18126933
Si       9.32698055       2.97652970      12.60661397
Si       5.82232305       1.36693887       1.49858239
16
Lattice="6.4269502070406395 0.5608156455756423 1.581693022751018 2.736449642684107 4.329955057057023 0.9712481452960663 6.127855520413791 2.016977497815888 14.067619306767314" Properties=species:S:1:pos:R:3 unique_starting_index=3 config_type=initial n_minim_iter=11 stress="0.0003330102518975797 -8.04381445586599e-05 -0.00013437347611216382 -8.04381445586599e-05 -0.00022743362890999543 0.0002398969894392454 -0.00013437347611216382 0.0002398969894392454 0.00010762434323838121" pbc="T T T"
Si       8.11572020       5.07906847       9.01869172
Si       9.65828618       3.16709894      14.93553559
Si       2.52826461       2.91675809       4.10310989
Si       6.24048250       3.26034608       2.87799994
Si       8.92014644       1.26525468       6.67254155
Si       9.71130373       3.28582433       9.22800540
Si       4.81529778       3.09471808       4.75742033
Si       8.57093484       3.44510526       3.37633344
Si       6.09485963       2.16509951      10.13153313
Si       7.95807867       1.71697373       8.79735915
Si      10.73541166       4.16937398      11.17133851
Si       4.83527709       0.85329592       5.70371867
Si       6.91745234       5.00945718      11.10353774
Si       7.01014794       2.94664236      12.17468934
Si       9.32260008       2.97358135      12.59881492
Si       5.82342083       1.36427245       1.49507738
16
Lattice="6.425441304192946 0.5610889610634585 1.5820687550876058 2.736258754071141 4.331124682507854 0.9699687673377403 6.1280425703338395 2.013348811699212 14.066018009437615" Properties=species:S:1:pos:R:3 unique_starting_index=3 config_type=initial n_minim_iter=12 stress="2.9455940385373604e-05 -9.760614807416692e-06 -2.9023410796987803e-05 -9.760614807416692e-06 -5.533142430225489e-06 -4.26204207614614e-06 -2.9023410796987803e-05 -4.26204207614614e-06 -1.7230656290966734e-06" pbc="T T T"
Si       8.11740525       5.08124718       9.01808124
Si       9.65801121       3.16239831      14.93362899
Si       2.52849177       2.91643584       4.10299470
Si       6.24033758       3.25951674       2.87709055
Si       8.91902451       1.26373706       6.67280547
Si       9.71047252       3.28582009       9.22751513
Si       4.81557138       3.09344155       4.75537867
Si       8.56994015       3.44456531       3.37545319
Si       6.09352707       2.16406707      10.12955085
Si       7.95761084       1.71605890       8.79637379
Si      10.73244350       4.16968826      11.17099626
Si       4.83460707       0.85250619       5.70423863
Si       6.91537987       5.00751966      11.10068811
Si       7.00933421       2.94314840      12.17238219
Si       9.32136559       2.97090118      12.59640773
Si       5.82200620       1.36305230       1.49498135
16
Lattice="6.4238873313626925 0.5613771041272374 1.5820481554180543 2.736065408305837 4.332006590512937 0.9685222814964531 6.127523169793361 2.0096637302843634 14.063622858912591" Properties=species:S:1:pos:R:3 unique_starting_index=3 config_type=initial n_minim_iter=13 stress="-0.00023825368710664717 5.361468675527432e-05 7.555465616449598e-05 5.361468675527432e-05 0.0001899261663170592 -0.00020069485741184084 7.555465616449598e-05 -0.00020069485741184084 -0.00010012629340132903" pbc="T T T"
Si       8.11980357       5.08607878       9.01646944
Si       9.65703885       3.15588546      14.93071113
Si       2.52879557       2.91547543       4.10349506
Si       6.24007583       3.25711725       2.87550052
Si       8.91788097       1.26148897       6.67252184
Si       9.70967343       3.28669634       9.22592995
Si       4.81627315       3.09178229       4.75330256
Si       8.56928877       3.44252135       3.37451607
Si       6.09014407       2.16281200      10.12566837
Si       7.95639432       1.71616905       8.79501065
Si      10.72803579       4.17239394      11.17121803
Si       4.83473371       0.85191943       5.70521038
Si       6.91220984       5.00523841      11.09613825
Si       7.00784933       2.93994533      12.16853896
Si       9.31801897       2.96759554      12.59280584
Si       5.82128759       1.36014609       1.49394088
16
Lattice="6.424923838429145 0.5610315161754469 1.5811982053190663 2.7361533235965765 4.330336493519733 0.9690914971045136 6.126210451120458 2.0115319965033653 14.06428751696821" Properties=species:S:1:pos:R:3 unique_starting_index=3 config_type=initial n_minim_iter=14 stress="3.443275921932883e-05 -3.853757926948232e-06 -1.0173639190100047e-05 -3.853757926948232e-06 -2.1671293100155793e-05 3.179479025711271e-05 -1.0173639190100047e-05 3.179479025711271e-05 7.134396857825399e-06" pbc="T T T"
Si       8.11965541       5.08817648       9.01558593
Si       9.65609863       3.15539426      14.93123444
Si       2.52888972       2.91417315       4.10455714
Si       6.24009646       3.25457954       2.87508625
Si       8.91888916       1.26114030       6.67203809
Si       9.71026674       3.28772182       9.22505414
Si       4.81665014       3.09166110       4.75484978
Si       8.57055465       3.43980423       3.37534015
Si       6.08766977       2.16296899      10.12462344
Si       7.95559441       1.71825643       8.79550148
Si      10.72778670       4.17518801      11.17322608
Si       4.83658336       0.85234860       5.70573402
Si       6.91168891       5.00533831      11.09562286
Si       7.00692325       2.94225985      12.16825517
Si       9.31568616       2.96777518      12.59345561
Si       5.82336626       1.35793238       1.49243826
16
Lattice="6.4246280711403365 0.5596720237614144 1.581626927163226 2.7354301239626793 4.328033296428929 0.9688734422428823 6.125776767329769 2.00813091912521 14.068206272998902" Properties=species:S:1:pos:R:3 unique_starting_index=3 config_type=initial n_minim_iter=15 stress="-1.4959447126174366e-05 -1.6448131360553277e-06 -5.984117179989357e-06 -1.6448131360553277e-06 -3.6344544310025852e-06 -1.0583213215844967e-05 -5.984117179989357e-06 -1.0583213215844967e-05 1.0372274940767778e-05" pbc="T T T"
Si       8.11967050       5.08894196       9.01602009
Si       9.65565449       3.14717891      14.93552022
Si       2.53039515       2.91013884       4.10550094
Si       6.24025861       3.24822938       2.87538399
Si       8.92079951       1.25884727       6.67652255
Si       9.71006526       3.28769371       9.22811849
Si       4.81633731       3.08875854       4.75588797
Si       8.57029685       3.43284686       3.37798862
Si       6.08455498       2.16232946      10.12620101
Si       7.95521145       1.71905525       8.79774608
Si      10.72500777       4.17391395      11.18068101
Si       4.83874985       0.84933918       5.70706679
Si       6.90819319       5.00145655      11.09401607
Si       7.00323642       2.93929379      12.16927886
Si       9.31459855       2.96254305      12.59782255
Si       5.82315003       1.35248576       1.49146352
16
Lattice="6.424883806821008 0.5592696802132453 1.5820989502849472 2.7352641319778335 4.327296441763793 0.9694406661642816 6.1264523314132715 2.008568657112412 14.069981881177512" Properties=species:S:1:pos:R:3 unique_starting_index=3 config_type=initial n_minim_iter=16 stress="2.2457886976276235e-05 1.59452249133227e-05 2.3890704826202427e-05 1.59452249133227e-05 3.2107783913462175e-05 4.450297838652334e-06 2.3890704826202427e-05 4.450297838652334e-06 -4.155048013536797e-05" pbc="T T T"
Si       8.11850516       5.08863609       9.01554883
Si       9.65621299       3.14595808      14.93845132
Si       2.53142354       2.90900918       4.10572389
Si       6.24010301       3.24598468       2.87709425
Si       8.92272523       1.25845809       6.67930766
Si       9.71116670       3.29006764       9.23089583
Si       4.81718120       3.08887666       4.75736358
Si       8.57020957       3.43028179       3.37906803
Si       6.08560579       2.16294050      10.12779384
Si       7.95515976       1.72028088       8.79969074
Si      10.72462193       4.17499492      11.18362287
Si       4.84075243       0.84806468       5.70582323
Si       6.90772966       5.00190379      11.09299722
Si       7.00374480       2.94052773      12.17015339
Si       9.31445879       2.96193694      12.60070067
Si       5.82291749       1.35071163       1.49211849
16
Lattice="6.42492999681738 0.5583350839208288 1.5821710951312127 2.734774015951611 4.32581116612055 0.9695228005927771 6.12599439391967 2.007307215673858 14.071921325314175" Properties=species:S:1:pos:R:3 unique_starting_index=3 config_type=initial n_minim_iter=17 stress="1.0001701155720298e-05 4.841545777300883e-06 1.012015720123353e-05 4.841545777300883e-06 1.2067799873231296e-05 2.6764380062508076e-06 1.012015720123353e-05 2.6764380062508076e-06 -7.986864442685615e-06" pbc="T T T"
Si       8.11827440       5.08841339       9.01611157
Si       9.65560336       3.14200249      14.94070895
Si       2.53174202       2.90736994       4.10620610
Si       6.24026807       3.24222128       2.87772581
Si       8.92384126       1.25630711       6.68125544
Si       9.71129890       3.29070265       9.23321608
Si       4.81780789       3.08735570       4.75784290
Si       8.57020763       3.42619760       3.37939808
Si       6.08476720       2.16296473      10.12851976
Si       7.95487259       1.72042256       8.80119558
Si      10.72255745       4.17489760      11.18660954
Si       4.84177310       0.84656006       5.70573824
Si       6.90511543       4.99990757      11.09185926
Si       7.00285535       2.93926104      12.17128917
Si       9.31278763       2.95969475      12.60268480
Si       5.82258045       1.34779080       1.49214024
16
Lattice="6.424844702434425 0.5572815640601869 1.58188257825647 2.734150210156426 4.3241991823219195 0.969417705902048 6.124804312309762 2.0058371590514326 14.073037659726452" Properties=species:S:1:pos:R:3 unique_starting_index=3 config_type=initial n_minim_iter=18 stress="-1.3779825144039833e-05 -8.861041818917265e-06 -1.0481074303882215e-05 -8.861041818917265e-06 -2.7237152172510666e-05 -3.1245441396641586e-06 -1.0481074303882215e-05 -3.1245441396641586e-06 2.839861271672298e-05" pbc="T T T"
Si       8.11753468       5.08792215       9.01597115
Si       9.65404577       3.13750200      14.94184253
Si       2.53185189       2.90570396       4.10633261
Si       6.24026547       3.23818657       2.87795030
Si       8.92440054       1.25355335       6.68240356
Si       9.71077309       3.29098061       9.23465643
Si       4.81830548       3.08543675       4.75796990
Si       8.57005981       3.42185311       3.37882770
Si       6.08305366       2.16303913      10.12845699
Si       7.95453600       1.72054232       8.80168891
Si      10.71992203       4.17456982      11.18908661
Si       4.84246198       0.84509454       5.70534132
Si       6.90144123       4.99769719      11.08997357
Si       7.00127356       2.93789117      12.17229771
Si       9.31040300       2.95729637      12.60355890
Si       5.82227694       1.34486303       1.49178614
16
Lattice="6.424564842930405 0.5575252895067023 1.581287650143823 2.7340999316457455 4.324819558071671 0.9692184131236179 6.123786094970214 2.006539907068795 14.070852618243464" Properties=species:S:1:pos:R:3 unique_starting_index=3 config_type=initial n_minim_iter=19 stress="1.696307245631554e-06 1.6376512536754964e-06 1.3249336120452667e-07 1.6376512536754964e-06 -3.9529191413389976e-07 1.9782186213872144e-06 1.3249336120452667e-07 1.9782186213872144e-06 -4.120324877492725e-06" pbc="T T T"
Si       8.11600194       5.08766034       9.01400187
Si       9.65260525       3.13849101      14.93930051
Si       2.53166841       2.90631572       4.10533210
Si       6.23964478       3.23924306       2.87747935
Si       8.92329049       1.25362276       6.68068022
Si       9.70974392       3.29119018       9.23256514
Si       4.81797373       3.08570412       4.75761208
Si       8.56965154       3.42304503       3.37719219
Si       6.08225795       2.16348525      10.12704231
Si       7.95439091       1.72108427       8.79953300
Si      10.71969946       4.17512884      11.18743138
Si       4.84192295       0.84563629       5.70413117
Si       6.90059045       4.99899980      11.08866913
Si       7.00043894       2.93936307      12.17152062
Si       9.30987633       2.95838941      12.60124140
Si       5.82233146       1.34602392       1.49133219
16
Lattice="6.424110909478573 0.5571923233823661 1.581124625384167 2.733722674584718 4.324756781385357 0.9689721526755947 6.122981963932136 2.005703345280949 14.070785559386604" Properties=species:S:1:pos:R:3 unique_starting_index=3 config_type=initial n_minim_iter=20 stress="9.34236536804972e-06 4.2945984096360076e-07 2.782862368849903e-06 4.2945984096360076e-07 6.679477550314421e-06 4.562765639307296e-06 2.782862368849903e-06 4.562765639307296e-06 -2.0095174722509304e-06" pbc="T T T"
Si       8.11447344       5.08662396       9.01345207
Si       9.65148600       3.13679031      14.93911812
Si       2.53169446       2.90569832       4.10473643
Si       6.23896701       3.23865601       2.87752601
Si       8.92268415       1.25272799       6.68042098
Si       9.70905146       3.29090044       9.23247105
Si       4.81756108       3.08475187       4.75770823
Si       8.56915924       3.42239898       3.37643017
Si       6.08183926       2.16290813      10.12686380
Si       7.95355052       1.72073116       8.79948900
Si      10.71870165       4.17536126      11.18783544
Si       4.84180133       0.84482443       5.70372071
Si       6.89898625       4.99841855      11.08796222
Si       6.99922179       2.93960890      12.17140039
Si       9.30898605       2.95767827      12.60117615
Si       5.82163799       1.34568343       1.49138573
