18
Lattice="5.993093411961524 0.25241839388484527 -0.15198760183754087 -1.4965983542297399 6.1215537094480315 -0.8507589509423544 -2.167147576346247 -3.6439544032480855 10.099941443370266" Properties=species:S:1:pos:R:3 unique_starting_index=108 config_type=initial n_minim_iter=1 energy=-2931.513384048954 free_energy=-2931.513384048954 pbc="T T T"
Si       3.47004371      -2.57595452       8.70612235
Si       2.87873054       0.61308861       6.60340433
Si      -2.57116564       3.17191901       4.78338246
Si       3.67906824       5.29360833       1.64569910
Si       2.93702440      -1.44103705       5.49765120
Si       1.79217211       7.78400290       0.26370069
Si       0.87033975       4.07221589       0.10123068
Si       1.88384157      -3.22326320       7.04987851
Si       2.31113281       1.80798644       3.28922369
Si       5.09683406       3.37632548      -1.36266213
Si       0.36765850       2.86313761       2.18295996
Si       2.90504177      -0.63598460       3.16493925
Si       4.07658927       2.64262381       6.80248077
Si       1.02511392       0.84733045       5.15222430
Si      -0.93069486       4.42045006       3.59787292
Si      -1.85597867       2.59845680       9.42401501
Si       3.22411903       3.69470886       0.02962690
Si      -1.90351980       6.89236007       0.40009366
18
Lattice="5.991109596275147 0.2532836210829093 -0.14851762974119395 -1.495776457954062 6.121727481796134 -0.8530212127218069 -2.1611525123619275 -3.6477279325063376 10.091938043139766" Properties=species:S:1:pos:R:3 unique_starting_index=108 config_type=initial n_minim_iter=2 stress="-0.0004213660648285586 7.495861948587813e-06 -6.212939362063319e-05 7.495861948587813e-06 -0.0003451924293432257 7.116769433205659e-05 -6.212939362063319e-05 7.116769433205659e-05 -0.0002619402318343328" pbc="T T T"
Si       3.47366956      -2.57852687       8.70210323
Si       2.88140308       0.61122122       6.59956989
Si      -2.56714298       3.17004651       4.77703411
Si       3.67955095       5.29360476       1.64480797
Si       2.93911834      -1.44241005       5.49550627
Si       1.79282184       7.78433202       0.26206042
Si       0.87070176       4.07222742       0.10036786
Si       1.88686589      -3.22553458       7.04655081
Si       2.31260809       1.80722803       3.28729064
Si       5.09483429       3.37748289      -1.35974221
Si       0.36922060       2.86240150       2.18053155
Si       2.90593012      -0.63668648       3.16419780
Si       4.07943175       2.64104734       6.79847645
Si       1.02772752       0.84584189       5.14833841
Si      -0.92769263       4.41910786       3.59286132
Si      -1.84970578       2.59498967       9.41450343
Si       3.22354403       3.69521580       0.03021408
Si      -1.90166195       6.89208427       0.39629462
18
Lattice="5.9934126175149345 0.25378977627074717 -0.14635221695289327 -1.496320664515713 6.124687839831413 -0.8551512943415344 -2.1584650667696823 -3.6522101151313078 10.091540498184365" Properties=species:S:1:pos:R:3 unique_starting_index=108 config_type=initial n_minim_iter=3 stress="3.501604422103988e-05 5.354993679763463e-05 0.00015849838967862522 5.354993679763463e-05 0.0002152136490244863 -5.927831836130217e-05 0.00015849838967862522 -5.927831836130217e-05 4.222325354717631e-05" pbc="T T T"
Si       3.47821915      -2.58187503       8.70359113
Si       2.88465499       0.60993361       6.60003726
Si      -2.56615004       3.17015402       4.77496429
Si       3.68196024       5.29582216       1.64483050
Si       2.94233169      -1.44421775       5.49672655
Si       1.79411165       7.78804694       0.26084568
Si       0.87136615       4.07396807       0.09972027
Si       1.89006165      -3.22885886       7.04784305
Si       2.31495363       1.80736534       3.28745683
Si       5.09651350       3.37962952      -1.35859737
Si       0.37040150       2.86302524       2.17987826
Si       2.90829809      -0.63765842       3.16510515
Si       4.08355913       2.64087731       6.79883332
Si       1.02991475       0.84503902       5.14806938
Si      -0.92642012       4.42008049       3.59097850
Si      -1.84685737       2.59349892       9.41248465
Si       3.22493830       3.69710462       0.03045401
Si      -1.90174008       6.89506234       0.39369566
18
Lattice="5.999810572379225 0.2515804006462741 -0.14820140242198843 -1.4998256519327842 6.121948330233889 -0.8562727702302707 -2.1626427057299393 -3.652859165607593 10.086871041584184" Properties=species:S:1:pos:R:3 unique_starting_index=108 config_type=initial n_minim_iter=4 stress="0.0006389402714759551 -0.00011152617997836992 -0.00015508544590977084 -0.00011152617997836992 -0.00025101930926605244 -0.0002748295629171769 -0.00015508544590977084 -0.0002748295629171769 -0.00045227938980423857" pbc="T T T"
Si       3.48090506      -2.58502113       8.69750567
Si       2.88232714       0.60667159       6.59395484
Si      -2.57126202       3.16808735       4.77143313
Si       3.68414855       5.29100573       1.64210690
Si       2.94517460      -1.44528624       5.49308120
Si       1.79353524       7.78361039       0.25863577
Si       0.87119990       4.07006060       0.09884884
Si       1.89135858      -3.23051833       7.04501997
Si       2.31665917       1.80481582       3.28384748
Si       5.10153116       3.37565162      -1.35998153
Si       0.36976395       2.85909809       2.17811066
Si       2.91132881      -0.63948507       3.16100619
Si       4.08339683       2.63683083       6.79135754
Si       1.02779597       0.84314274       5.14293583
Si      -0.92981581       4.41616346       3.58584273
Si      -1.85301525       2.58849128       9.40520581
Si       3.22614218       3.69353201       0.02862762
Si      -1.90541850       6.89166030       0.39139881
18
Lattice="5.993319078559207 0.2506807084756417 -0.14716271637697842 -1.4992081851918164 6.1223223676218215 -0.8531739898344197 -2.1581032519122205 -3.646094177276647 10.093949564220914" Properties=species:S:1:pos:R:3 unique_starting_index=108 config_type=initial n_minim_iter=5 stress="-6.855709209859908e-05 0.00020585744241639304 -1.3594050011863954e-05 0.00020585744241639304 0.00011972924625399405 0.00018867317776435888 -1.3594050011863954e-05 0.00018867317776435888 -4.4659979763987986e-05" pbc="T T T"
Si       3.48069759      -2.58068607       8.70448884
Si       2.87330208       0.61210692       6.60015021
Si      -2.56767100       3.17373009       4.77766450
Si       3.68091131       5.29282873       1.65090167
Si       2.94522897      -1.44015805       5.49863693
Si       1.79149893       7.78607450       0.26714905
Si       0.87067510       4.06794255       0.10381001
Si       1.89152479      -3.22708489       7.05281104
Si       2.31624570       1.80791297       3.28854808
Si       5.09582042       3.37303487      -1.35699894
Si       0.37092583       2.85792451       2.18410750
Si       2.91048883      -0.63792125       3.16121182
Si       4.07652269       2.64400358       6.79879067
Si       1.02461299       0.84813577       5.14611178
Si      -0.92811524       4.41831304       3.58907782
Si      -1.85034980       2.59362841       9.41432462
Si       3.22014890       3.69288886       0.03254091
Si      -1.90251777       6.89305344       0.39571510
18
Lattice="5.991949155483425 0.2473761595861519 -0.1465436102753536 -1.5023901815919078 6.122059032391857 -0.8560098354129644 -2.154351520813333 -3.6478646488406996 10.099043328518372" Properties=species:S:1:pos:R:3 unique_starting_index=108 config_type=initial n_minim_iter=6 stress="-0.0001630827547768733 -0.00011432514957356802 3.3430200558887996e-05 -0.00011432514957356802 -7.309097503852558e-05 -0.0001548874989897002 3.3430200558887996e-05 -0.0001548874989897002 0.00022066412430354941" pbc="T T T"
Si       3.48265489      -2.58531252       8.70939375
Si       2.87271852       0.60819823       6.60321299
Si      -2.56828205       3.17291354       4.77786824
Si       3.67751676       5.28899005       1.64974973
Si       2.94618799      -1.44342218       5.50161890
Si       1.78693381       7.78289000       0.26457695
Si       0.86818153       4.06638455       0.10257958
Si       1.89381913      -3.23003019       7.05724157
Si       2.31533771       1.80501803       3.28964803
Si       5.09258449       3.37000756      -1.35818014
Si       0.36974652       2.85602791       2.18411891
Si       2.91067737      -0.64054941       3.16295869
Si       4.07482889       2.63860605       6.80090795
Si       1.02416315       0.84551100       5.14757155
Si      -0.92950511       4.41627390       3.58866379
Si      -1.84991539       2.59041646       9.41690155
Si       3.21768437       3.69041455       0.03168447
Si      -1.90585843       6.89219352       0.39308787
18
Lattice="5.994167465612892 0.24593074518297 -0.14600504045007912 -1.50447947434363 6.1226840191929535 -0.854281235018476 -2.1536141361406624 -3.6452038440176313 10.093725189780617" Properties=species:S:1:pos:R:3 unique_starting_index=108 config_type=initial n_minim_iter=7 stress="0.00015780071552514745 -0.000304440470703228 9.646758417321946e-05 -0.000304440470703228 -5.2069072659665874e-05 5.204232299693922e-05 9.646758417321946e-05 5.204232299693922e-05 -9.418796985096005e-05" pbc="T T T"
Si       3.48534042      -2.58420608       8.70550832
Si       2.87332573       0.60979243       6.60197032
Si      -2.56974502       3.17564778       4.77611760
Si       3.67795036       5.28895292       1.64942882
Si       2.94793959      -1.44287371       5.49864994
Si       1.78591507       7.78217807       0.26622637
Si       0.86716833       4.06660333       0.10381605
Si       1.89565280      -3.22891511       7.05374915
Si       2.31614939       1.80532277       3.28933369
Si       5.09300027       3.36906802      -1.35682711
Si       0.36981044       2.85649035       2.18419968
Si       2.91195341      -0.64047242       3.16173414
Si       4.07577332       2.63933625       6.79880245
Si       1.02371739       0.84656883       5.14482516
Si      -0.92956506       4.41734700       3.58825793
Si      -1.84976038       2.59311718       9.41371564
Si       3.21897567       3.69036408       0.03303193
Si      -1.90836829       6.89266499       0.39459422
18
Lattice="5.9951506066583375 0.25147004108613685 -0.14975374184046136 -1.498559303365339 6.12182546467323 -0.8566731974966625 -2.163264821690896 -3.6526808222027576 10.096701953284528" Properties=species:S:1:pos:R:3 unique_starting_index=108 config_type=initial n_minim_iter=8 stress="0.0002422202356390084 8.943577115051123e-05 -0.0002204827771664314 8.943577115051123e-05 -9.207771092493266e-05 -0.0003579299744608785 -0.0002204827771664314 -0.0003579299744608785 -0.00013686416768589075" pbc="T T T"
Si       3.47894641      -2.58577433       8.70501153
Si       2.86577754       0.61084121       6.60248597
Si      -2.57019443       3.17327038       4.77492601
Si       3.68309420       5.29146863       1.64209496
Si       2.94398161      -1.44230375       5.49645694
Si       1.79377481       7.78152868       0.26099273
Si       0.87018625       4.06685969       0.10220099
Si       1.88845719      -3.23103216       7.05526270
Si       2.31699098       1.80576624       3.28818506
Si       5.09583341       3.37489263      -1.36230472
Si       0.37283392       2.85417629       2.18373502
Si       2.90971822      -0.63934979       3.15958042
Si       4.07235438       2.63982318       6.79387757
Si       1.01785027       0.84517715       5.14065719
Si      -0.92445264       4.41338673       3.58556397
Si      -1.85110906       2.58517482       9.41359418
Si       3.22466704       3.69424491       0.03006144
Si      -1.90246288       6.88922890       0.39215137
18
Lattice="5.993674835598463 0.24880889506849008 -0.14742159764552532 -1.5011272980910428 6.120595860842549 -0.8542703871102324 -2.1574489913039807 -3.6454409477327516 10.098231446673003" Properties=species:S:1:pos:R:3 unique_starting_index=108 config_type=initial n_minim_iter=9 stress="0.000203794340521619 -5.377527002418096e-06 6.448820831261311e-05 -5.377527002418096e-06 -0.00016045345196386669 1.9918474314658342e-05 6.448820831261311e-05 1.9918474314658342e-05 -5.043036899540345e-05" pbc="T T T"
Si       3.48359345      -2.58207017       8.70884361
Si       2.86213562       0.61459344       6.60738066
Si      -2.56883913       3.17813468       4.77714223
Si       3.68174135       5.28977830       1.64743230
Si       2.94668620      -1.43849505       5.49896873
Si       1.79092192       7.77893451       0.26708402
Si       0.86843009       4.06418961       0.10617315
Si       1.89208323      -3.22754007       7.05884880
Si       2.31828262       1.80655689       3.29206936
Si       5.09219048       3.37081927      -1.35877836
Si       0.37387423       2.85245329       2.18754294
Si       2.91123652      -0.63854647       3.16015420
Si       4.07053964       2.64240378       6.79870609
Si       1.01616977       0.84828087       5.14110428
Si      -0.92283921       4.41363592       3.58754359
Si      -1.84737934       2.58912680       9.41788171
Si       3.22244005       3.69180325       0.03415363
Si      -1.90378778       6.88803815       0.39515126
18
Lattice="5.989141273382268 0.24631081805689478 -0.14912327627789732 -1.5025011241306423 6.125994137884796 -0.8530293046244117 -2.15712939923617 -3.6460152743550918 10.098425225374141" Properties=species:S:1:pos:R:3 unique_starting_index=108 config_type=initial n_minim_iter=10 stress="-0.0001768434851402196 -0.0001584416100893776 -8.461748063309025e-05 -0.0001584416100893776 0.00034219875942489617 8.707926093372192e-05 -8.461748063309025e-05 8.707926093372192e-05 -0.00015894703641600584" pbc="T T T"
Si       3.48025058      -2.58444956       8.70782393
Si       2.85355210       0.61580676       6.60690925
Si      -2.56936765       3.18385716       4.77786043
Si       3.67715302       5.29237692       1.64762187
Si       2.94360984      -1.43831740       5.49791090
Si       1.78659943       7.78420097       0.26830918
Si       0.86608402       4.06578597       0.10746031
Si       1.88999837      -3.23015666       7.05901807
Si       2.31596898       1.80765587       3.29216808
Si       5.08683522       3.37076763      -1.35934733
Si       0.37285499       2.85308302       2.18840209
Si       2.90902615      -0.63965417       3.15819108
Si       4.06265968       2.64429968       6.79722839
Si       1.01115094       0.84991152       5.13900139
Si      -0.92366845       4.41715516       3.58717016
Si      -1.84912447       2.59224919       9.41846795
Si       3.21829237       3.69270264       0.03440565
Si      -1.90453193       6.89406869       0.39626687
18
Lattice="5.988636622804762 0.24783826307777387 -0.14822129693515385 -1.5008227905514115 6.123031045979746 -0.8532119375527629 -2.1563171278458833 -3.644354337802081 10.102699379554982" Properties=species:S:1:pos:R:3 unique_starting_index=108 config_type=initial n_minim_iter=11 stress="-0.00014028389184191564 -9.594282575108201e-07 6.366894684568155e-05 -9.594282575108201e-07 3.874399306613899e-05 0.00011171469827152888 6.366894684568155e-05 0.00011171469827152888 9.279628483202939e-05" pbc="T T T"
Si       3.48079322      -2.58128412       8.71286576
Si       2.85166971       0.61761176       6.61084855
Si      -2.56725525       3.18330810       4.77963617
Si       3.67938322       5.29100240       1.64953780
Si       2.94327562      -1.43469201       5.50089814
Si       1.78903200       7.78134936       0.26948722
Si       0.86718490       4.06369272       0.10853948
Si       1.88983194      -3.22790727       7.06284260
Si       2.31767661       1.80782729       3.29477047
Si       5.08658328       3.37054704      -1.35861845
Si       0.37474419       2.85096415       2.18972278
Si       2.90937789      -0.63790382       3.15970806
Si       4.06318279       2.64487603       6.80114930
Si       1.01023503       0.85080123       5.14041519
Si      -0.92045649       4.41467717       3.58852432
Si      -1.84590906       2.59068206       9.42290640
Si       3.21918160       3.69126130       0.03580525
Si      -1.90156567       6.89054913       0.39639026
18
Lattice="5.987081011242542 0.25193793779448886 -0.14884992668144673 -1.4961223142618454 6.121786983469375 -0.8538892811817859 -2.1591069522019573 -3.6464713272622444 10.107060699031972" Properties=species:S:1:pos:R:3 unique_starting_index=108 config_type=initial n_minim_iter=12 stress="6.252850597584188e-05 0.00020170771049842932 0.0001528326113562879 0.00020170771049842932 -0.0003533204898846842 -2.7625456339576365e-06 0.0001528326113562879 -2.7625456339576365e-06 0.0002970604714087848" pbc="T T T"
Si       3.47648992      -2.57704140       8.71786233
Si       2.84475916       0.62098065       6.61413778
Si      -2.56438322       3.18358034       4.78060239
Si       3.68420250       5.29128830       1.64871210
Si       2.93741092      -1.42735356       5.50254527
Si       1.79480831       7.78076425       0.26811531
Si       0.86959524       4.06300341       0.10897268
Si       1.88529533      -3.22692069       7.06508605
Si       2.32033364       1.80862703       3.29723642
Si       5.08589290       3.37438755      -1.35934667
Si       0.37815834       2.84818050       2.18847706
Si       2.90819323      -0.63415034       3.16098150
Si       4.06213097       2.64514528       6.80360125
Si       1.00523438       0.85242516       5.13947942
Si      -0.91348455       4.41155861       3.58945301
Si      -1.84139090       2.58708431       9.42710239
Si       3.22183491       3.69026916       0.03684142
Si      -1.89393500       6.88818423       0.39532442
18
Lattice="5.984010234019677 0.2504475499308809 -0.15161113946489613 -1.496798787900905 6.129871859838168 -0.8528020574732791 -2.1617080068211814 -3.650657029212438 10.101517109525503" Properties=species:S:1:pos:R:3 unique_starting_index=108 config_type=initial n_minim_iter=13 stress="-2.0716960468768452e-05 -7.475966450255978e-05 -7.885896911656924e-05 -7.475966450255978e-05 0.00013452892882822058 -1.796699743128035e-05 -7.885896911656924e-05 -1.796699743128035e-05 -0.0001266410075512888" pbc="T T T"
Si       3.47028210      -2.57991602       8.71117568
Si       2.83747968       0.62209864       6.60916743
Si      -2.56690684       3.18925111       4.77878512
Si       3.68114322       5.29543551       1.64514734
Si       2.93134652      -1.42715996       5.49731051
Si       1.79206292       7.78863548       0.26674441
Si       0.86796525       4.06748571       0.10849812
Si       1.88135538      -3.23135261       7.05892079
Si       2.31851014       1.80988547       3.29440782
Si       5.08235839       3.37773405      -1.36103484
Si       0.37689100       2.85011614       2.18472455
Si       2.90599418      -0.63422870       3.15799195
Si       4.05588205       2.64521390       6.79776034
Si       0.99945879       0.85426619       5.13445705
Si      -0.91400136       4.41575181       3.58775285
Si      -1.84398220       2.58980780       9.42191306
Si       3.21911197       3.69203408       0.03607739
Si      -1.89357906       6.89648949       0.39556356
18
Lattice="5.9832645928812855 0.2512054546458361 -0.15164713208123093 -1.4958723149293283 6.1306714943000955 -0.8530114117310224 -2.161891835312565 -3.651725115157163 10.102425560570445" Properties=species:S:1:pos:R:3 unique_starting_index=108 config_type=initial n_minim_iter=14 stress="6.281222433732173e-05 -3.715162321786093e-05 7.4177837728010504e-06 -3.715162321786093e-05 5.930863667992854e-06 -4.129152751749698e-06 7.4177837728010504e-06 -4.129152751749698e-06 -4.2322672538626094e-05" pbc="T T T"
Si       3.46812963      -2.57840880       8.71127277
Si       2.83403110       0.62479876       6.61062718
Si      -2.56897843       3.19054272       4.78106810
Si       3.68237639       5.29561945       1.64483385
Si       2.92937414      -1.42485580       5.49749567
Si       1.79423333       7.78827412       0.26826779
Si       0.86886538       4.06814607       0.10872438
Si       1.88051946      -3.23119116       7.05930078
Si       2.32036680       1.81091261       3.29431214
Si       5.08231916       3.37965548      -1.36183978
Si       0.37822314       2.84837566       2.18208566
Si       2.90760925      -0.63120992       3.15794205
Si       4.05502606       2.64423292       6.79896590
Si       0.99606778       0.85748541       5.13344469
Si      -0.91150959       4.41327690       3.58812560
Si      -1.84209641       2.58818206       9.42196026
Si       3.21784466       3.69116382       0.03708648
Si      -1.88998466       6.89504577       0.39604067
18
Lattice="5.9818231869151965 0.25175838312133747 -0.15226457366558907 -1.4948973508313321 6.131600309995448 -0.8529441696209498 -2.162679136575089 -3.652512598529898 10.103807813159566" Properties=species:S:1:pos:R:3 unique_starting_index=108 config_type=initial n_minim_iter=15 stress="7.121544112443732e-06 2.042119728308422e-06 1.5448048728048233e-05 2.042119728308422e-06 -1.1655127609647044e-05 1.1397462098042095e-05 1.5448048728048233e-05 1.1397462098042095e-05 1.3009994286447714e-05" pbc="T T T"
Si       3.46561869      -2.57755089       8.71160716
Si       2.82987741       0.62666840       6.61160500
Si      -2.57004439       3.19201243       4.78302010
Si       3.68272524       5.29611044       1.64459682
Si       2.92702480      -1.42296523       5.49755113
Si       1.79556804       7.78854928       0.26903798
Si       0.86913401       4.06870480       0.10911321
Si       1.87875049      -3.23107647       7.06004903
Si       2.32078106       1.81192678       3.29457415
Si       5.08128735       3.38114421      -1.36260184
Si       0.37903836       2.84726272       2.18094687
Si       2.90783622      -0.62923503       3.15768105
Si       4.05290406       2.64434518       6.79966561
Si       0.99296129       0.85969434       5.13255109
Si      -0.90993247       4.41170264       3.58861269
Si      -1.84132199       2.58746673       9.42282759
Si       3.21708510       3.69073610       0.03746895
Si      -1.88724836       6.89451294       0.39642053
18
Lattice="5.979547139030773 0.252877460216635 -0.15379647801847401 -1.4930520696578418 6.13341343715579 -0.8532303265969381 -2.1649553726278348 -3.6549423358643662 10.10619269733654" Properties=species:S:1:pos:R:3 unique_starting_index=108 config_type=initial n_minim_iter=16 stress="-7.669213464867591e-05 6.364248946337831e-05 8.284257559047727e-06 6.364248946337831e-05 -2.4761103918382165e-05 1.3817377689317911e-05 8.284257559047727e-06 1.3817377689317911e-05 8.195733363182696e-05" pbc="T T T"
Si       3.46074489      -2.57667110       8.71132789
Si       2.82160328       0.62938037       6.61234627
Si      -2.57292275       3.19453135       4.78705399
Si       3.68399616       5.29652769       1.64358366
Si       2.92200459      -1.41957730       5.49684468
Si       1.79899239       7.78851945       0.26939270
Si       0.86943906       4.07007765       0.10962033
Si       1.87453820      -3.23079541       7.06129902
Si       2.32100106       1.81417412       3.29476812
Si       5.07947785       3.38448395      -1.36429188
Si       0.38051886       2.84480620       2.17833143
Si       2.90866241      -0.62504259       3.15695516
Si       4.04901123       2.64428253       6.80026206
Si       0.98696251       0.86393896       5.12994651
Si      -0.90767298       4.40681275       3.58938387
Si      -1.84044425       2.58550392       9.42354491
Si       3.21681090       3.68936494       0.03743916
Si      -1.88168241       6.89263292       0.39623433
18
Lattice="5.9811895005656455 0.25249017618148073 -0.15399529272647042 -1.4938292293786164 6.132914142615739 -0.8540463782176586 -2.1656293661905566 -3.656024154702226 10.105163889798048" Properties=species:S:1:pos:R:3 unique_starting_index=108 config_type=initial n_minim_iter=17 stress="-2.4518601298407516e-06 -9.785524054686838e-06 -4.061198408998907e-06 -9.785524054686838e-06 2.5649660569877146e-06 -4.727729647870325e-06 -4.061198408998907e-06 -4.727729647870325e-06 -1.8833745065478793e-05" pbc="T T T"
Si       3.46237197      -2.57831452       8.70952876
Si       2.82268459       0.62693046       6.60990083
Si      -2.57437548       3.19363078       4.78724341
Si       3.68526883       5.29463599       1.64311265
Si       2.92182028      -1.42055356       5.49495591
Si       1.80033938       7.78671157       0.26700956
Si       0.86899194       4.07030690       0.10943906
Si       1.87371220      -3.23013761       7.06085889
Si       2.31963235       1.81465886       3.29426361
Si       5.08008844       3.38455856      -1.36430913
Si       0.37996639       2.84429142       2.17813412
Si       2.90979574      -0.62472465       3.15673275
Si       4.05030967       2.64364141       6.79894981
Si       0.98814493       0.86335435       5.12834143
Si      -0.91011746       4.40263720       3.58920658
Si      -1.84162618       2.58494884       9.42145352
Si       3.21937297       3.68783958       0.03612270
Si      -1.88201033       6.89056186       0.39399639
18
Lattice="5.980958180559031 0.253312104837159 -0.1544374600361387 -1.4929073560265205 6.133478879195946 -0.8546150320697178 -2.166693495825868 -3.6577513563590953 10.106125969017231" Properties=species:S:1:pos:R:3 unique_starting_index=108 config_type=initial n_minim_iter=18 stress="4.0814510564517645e-05 -1.5964720521675735e-05 -1.8826907203919874e-06 -1.5964720521675735e-05 1.067548104358292e-05 1.9086207981665974e-05 -1.8826907203919874e-06 1.9086207981665974e-05 2.389965813940627e-05" pbc="T T T"
Si       3.46164333      -2.57810378       8.70975763
Si       2.82070056       0.62776833       6.61045299
Si      -2.57534331       3.19419002       4.78825158
Si       3.68693037       5.29434543       1.64279382
Si       2.91901365      -1.41952268       5.49332522
Si       1.80284839       7.78675973       0.26617992
Si       0.87062137       4.07088780       0.11029758
Si       1.87158006      -3.22971290       7.06130884
Si       2.31986141       1.81593734       3.29394991
Si       5.08047213       3.38613627      -1.36579573
Si       0.38025218       2.84312742       2.17766554
Si       2.91027590      -0.62329803       3.15645159
Si       4.04912010       2.64340592       6.79913767
Si       0.98626161       0.86416617       5.12699931
Si      -0.90951680       4.39914943       3.58971340
Si      -1.84082965       2.58415614       9.42184953
Si       3.21914122       3.68749749       0.03662267
Si      -1.87912028       6.88953890       0.39251910
18
Lattice="5.980944851298767 0.25400493066808677 -0.15429602791950298 -1.492235904266671 6.133414482414995 -0.8554899472415293 -2.166802804247071 -3.659431976797942 10.106046805166272" Properties=species:S:1:pos:R:3 unique_starting_index=108 config_type=initial n_minim_iter=19 stress="-3.622755326268283e-05 1.1828861363121742e-05 8.127798699816568e-06 1.1828861363121742e-05 -1.7655012484780434e-05 -1.4168462494708762e-05 8.127798699816568e-06 -1.4168462494708762e-05 -1.6556999616138405e-05" pbc="T T T"
Si       3.46213846      -2.57887344       8.70947517
Si       2.82110251       0.62742989       6.61010848
Si      -2.57535840       3.19331295       4.78761505
Si       3.68789506       5.29445525       1.64246712
Si       2.91805103      -1.42005828       5.49198578
Si       1.80437566       7.78693801       0.26518950
Si       0.87176657       4.07109380       0.11071865
Si       1.87097167      -3.22997665       7.06149125
Si       2.32009333       1.81623104       3.29312866
Si       5.08124069       3.38693900      -1.36627067
Si       0.38019448       2.84244155       2.17775073
Si       2.91046242      -0.62336720       3.15593988
Si       4.04890280       2.64312062       6.79855592
Si       0.98642885       0.86350480       5.12635957
Si      -0.90940907       4.39719203       3.58927017
Si      -1.83995052       2.58287387       9.42125106
Si       3.21916943       3.68781284       0.03658789
Si      -1.87770993       6.88885107       0.39102623
18
Lattice="5.98087601926206 0.25494536247236843 -0.15471685073459332 -1.4912461835783273 6.134359411627594 -0.8558053047961138 -2.167989869774017 -3.6611805677159954 10.105865449077335" Properties=species:S:1:pos:R:3 unique_starting_index=108 config_type=initial n_minim_iter=20 stress="-5.577469139067732e-06 6.901601893195224e-06 -2.0289742295603292e-05 6.901601893195224e-06 -3.6814675289671983e-06 -1.1490233977792934e-05 -2.0289742295603292e-05 -1.1490233977792934e-05 5.943785318628729e-07" pbc="T T T"
Si       3.46129460      -2.57916985       8.70827045
Si       2.82057829       0.62795340       6.60908432
Si      -2.57652119       3.19308183       4.78717966
Si       3.68900153       5.29655615       1.64186464
Si       2.91541472      -1.41965988       5.48970578
Si       1.80635199       7.78871834       0.26468742
Si       0.87220421       4.07239202       0.11182801
Si       1.86962477      -3.23051834       7.06106213
Si       2.32061526       1.81656764       3.29194779
Si       5.08241333       3.38887571      -1.36584041
Si       0.37986986       2.84169783       2.17765074
Si       2.91031095      -0.62306930       3.15438751
Si       4.04776077       2.64371237       6.79778807
Si       0.98585709       0.86353998       5.12580554
Si      -0.90919204       4.39629633       3.58946817
Si      -1.83884748       2.58195050       9.42155333
Si       3.22047641       3.68856151       0.03621175
Si      -1.87580927       6.88917211       0.39069522
