22
Lattice="5.003676402599553 -2.4833104847171286 1.1417217468090746 -2.588673069537097 8.151849209034602 -0.05809882756067299 0.19138801556020693 3.309163603472407 13.215459009344766" Properties=species:S:1:pos:R:3 unique_starting_index=206 config_type=initial n_minim_iter=15 energy=-3582.4026259921793 free_energy=-3582.4026259921793 pbc="T T T"
Si      -1.34516865       3.72968823       1.25376042
Si       3.95156000       5.24801410      13.04532151
Si      -0.47149133       9.26233906      10.05104530
Si       3.07788268      -0.28463673       4.24803663
Si       0.81037094       6.45049169      10.88216862
Si       1.79602040       2.52721064       3.41691331
Si       2.43796189       6.53322791       3.96061079
Si       0.16842946       2.44447441      10.33847114
Si      -0.55102848       3.84785182       8.56027928
Si       3.15741983       5.12985051       5.73880265
Si       3.92697626       1.24574370       5.82800159
Si      -1.32058492       7.73195863       8.47108034
Si       0.30462408       6.02616792       8.60642084
Si       2.30176727       2.95153440       5.69266109
Si       2.29749092       4.47366538      11.43850711
Si       0.30890042       4.50403695       2.86057482
Si       0.32004726       2.03864818       0.71480433
Si       2.28634409       6.93905414      13.58427760
Si      -2.30403159       7.06398898       1.31144701
Si       4.91042294       1.91371335      12.98763492
Si       5.13462723       0.33774123       7.68196121
Si      -2.52823588       8.63996109       6.61712072
