6
Lattice="3.7981314419898102 -0.05377734293483092 -0.09540498560709774 0.10730248744670315 6.589632178242055 0.5573717303445003 0.082766566784577 -2.9096734320257065 4.935096448433782" Properties=species:S:1:pos:R:3 unique_starting_index=156 config_type=initial n_minim_iter=1 energy=-978.5919895999965 free_energy=-978.5919895999965 pbc="T T T"
Si       3.58401204       1.92042483       2.95693601
Si       1.63458076      -1.47562638       2.92897786
Si       3.56734618       5.42926806       0.31561309
Si       1.58626407       0.22295530       0.04801386
Si       3.60179606       4.21817631       2.36974554
Si       1.65236478       0.82212510       2.34178739
6
Lattice="3.805388945139382 -0.05388010115731115 -0.09558728629734599 0.10743874989235451 6.5905739005076995 0.5622655978399036 0.08265854399112242 -2.9058758714359816 4.92865540677846" Properties=species:S:1:pos:R:3 unique_starting_index=156 config_type=initial n_minim_iter=2 stress="0.0004375080649500441 -4.209859334615018e-06 -1.5743488857179545e-05 -4.209859334615018e-06 -0.00011190580840244822 0.00014234991343551435 -1.5743488857179545e-05 0.00014234991343551435 -0.0002690338846687057" pbc="T T T"
Si       3.59068962       1.92345245       2.95614914
Si       1.63756019      -1.47317079       2.92587060
Si       3.57410331       5.42928808       0.31968834
Si       1.58929439       0.22362172       0.04794119
Si       3.60849606       4.22020473       2.37041434
Si       1.65536663       0.82358149       2.34013580
6
Lattice="3.7996712591282056 -0.05379914504346595 -0.09544366416105773 0.10748222866273978 6.596157771357102 0.5608490298078176 0.08277570190414994 -2.909994578785232 4.93564114537981" Properties=species:S:1:pos:R:3 unique_starting_index=156 config_type=initial n_minim_iter=3 stress="0.0003741674413696154 1.0622858407513105e-05 1.3130056684274282e-05 1.0622858407513105e-05 0.0009501151531702141 9.798492026770505e-05 1.3130056684274282e-05 9.798492026770505e-05 0.0008411713061964465" pbc="T T T"
Si       3.58560241       1.92642921       2.96065748
Si       1.63534408      -1.47464589       2.93328190
Si       3.56887846       5.43084125       0.31951949
Si       1.58693953       0.22702456       0.04707903
Si       3.60324961       4.22251713       2.36895776
Si       1.65299128       0.82144202       2.34158218
6
Lattice="3.797314992685552 -0.053765782915148996 -0.0953844772768013 0.1073905341702922 6.591885041537561 0.5596070435814671 0.08274395827899284 -2.908878625975492 4.933748378072198" Properties=species:S:1:pos:R:3 unique_starting_index=156 config_type=initial n_minim_iter=4 stress="-0.0001696444688703485 8.415604085758808e-06 4.469687370744412e-06 8.415604085758808e-06 0.00010587215019067795 0.00017959829881674102 4.469687370744412e-06 0.00017959829881674102 -9.316983532228094e-05" pbc="T T T"
Si       3.58339080       1.92525927       2.95928191
Si       1.63436022      -1.47396831       2.93280086
Si       3.56663900       5.42664813       0.31873905
Si       1.58596000       0.22754978       0.04685640
Si       3.60098274       4.21928760       2.36654297
Si       1.65195216       0.82006002       2.34006192
