20
Lattice="2.477567467380844 -1.7036315672640167e-16 -5.946424020820014e-09 3.6304454359383133e-16 5.279706559180032 -2.112072658067485e-14 5.57760638336083e-08 9.296437350365996e-14 23.239002252255958" Properties=species:S:1:pos:R:3 unique_starting_index=4 config_type=initial n_minim_iter=1 energy=-3256.5590795089092 free_energy=-3256.5590795089092 pbc="T T T"
Si       1.22321341       4.30398317      15.10338053
Si       1.22321339       0.97572339       8.13562172
Si       1.24091189       3.09160849      12.81334187
Si       1.24091189       2.18809807      10.42566037
Si       1.25435415       1.66412989      19.75512284
Si       1.25435411       3.61557667       3.48387940
Si       1.23665566       5.73146177      22.04516150
Si       1.23665561      -0.45175521       1.19384075
Si       1.22728336       4.99167222       5.81000782
Si       1.22728339       0.28803434      17.42899443
Si       1.22885374       4.29160603      19.72873089
Si       1.22885370       0.98810053       3.51027135
Si       1.25028414       2.35181894       5.80949330
Si       1.25028416       2.92788762      17.42950894
Si       1.24871381       1.65175275      15.12977248
Si       1.24871379       3.62795381       8.10922977
Si       3.71452026       3.10913672      22.05511868
Si       3.71452021       2.17056984       1.18388355
Si      -1.23695272       4.81042312      10.43561757
Si      -1.23695271       0.46928344      12.80338469
20
Lattice="2.4750471242849623 -1.7018985197383854e-16 -5.9403749307656074e-09 3.6291441279489697e-16 5.277814077298019 -2.111256408336237e-14 5.5774366015216495e-08 9.296414719271873e-14 23.238294859107008" Properties=species:S:1:pos:R:3 unique_starting_index=4 config_type=initial n_minim_iter=2 stress="-0.0010802829194278098 1.154770426144952e-16 1.5688786530282534e-12 1.154770426144952e-16 -0.00024730024174647505 -4.1236800628793986e-17 1.5688786530282534e-12 -4.1236800628793986e-17 -0.00042661700645840956" pbc="T T T"
Si       1.22208474       4.30251179      15.10312463
Si       1.22208472       0.97530229       8.13517022
Si       1.23963256       3.09069673      12.81271524
Si       1.23963255       2.18711734      10.42557961
Si       1.25296247       1.66360475      19.75431765
Si       1.25296243       3.61420933       3.48397720
Si       1.23541465       5.72960377      22.04472704
Si       1.23541460      -0.45178969       1.19356781
Si       1.22611897       4.98971181       5.80977029
Si       1.22611899       0.28810226      17.42852457
Si       1.22768010       4.29034430      19.72822071
Si       1.22768007       0.98746978       3.51007414
Si       1.24892819       2.35080478       5.80937714
Si       1.24892821       2.92700930      17.42891771
Si       1.24736710       1.65143726      15.12922157
Si       1.24736709       3.62637682       8.10907328
Si       3.71074996       3.10809945      22.05463208
Si       3.71074991       2.16971462       1.18366276
Si      -1.23570276       4.80862166      10.43548466
Si      -1.23570275       0.46919241      12.80281020
20
Lattice="2.473755192201042 -1.7010101566551053e-16 -5.9372741570921425e-09 3.6214940367174336e-16 5.266688651125287 -2.105799697277236e-14 5.609238223766759e-08 9.353825039751812e-14 23.37079577799296" Properties=species:S:1:pos:R:3 unique_starting_index=4 config_type=initial n_minim_iter=3 stress="-0.001458812444604895 4.077672771313184e-17 1.4313870114996187e-11 4.077672771313184e-17 0.0013277364143142014 2.0054186756582738e-17 1.4313870114996187e-11 2.0054186756582738e-17 0.00450503859476769" pbc="T T T"
Si       1.22484225       4.29555674      15.19523852
Si       1.22484224       0.97113191       8.17555725
Si       1.23848665       3.08998938      12.87884162
Si       1.23848664       2.17669927      10.49195415
Si       1.24891302       1.66221242      19.86095514
Si       1.24891298       3.60447624       3.50984063
Si       1.23526863       5.72333371      22.17735204
Si       1.23526858      -0.45664506       1.19344373
Si       1.22794714       4.97415745       5.84112376
Si       1.22794717       0.29253120      17.52967201
Si       1.22928302       4.28939117      19.84338658
Si       1.22928298       0.97729748       3.52740920
Si       1.24580808       2.34081312       5.84427412
Si       1.24580811       2.92587553      17.52652165
Si       1.24447225       1.65604684      15.21280709
Si       1.24447224       3.61064181       8.15798869
Si       3.70905825       3.10383953      22.18577336
Si       3.70905820       2.16284912       1.18502240
Si      -1.23530298       4.79619345      10.50037548
Si      -1.23530297       0.47049521      12.87042030
20
Lattice="2.4774594476138576 -1.703557314090949e-16 -5.946164761951962e-09 3.6072873991772174e-16 5.2460282174900605 -2.0929488407806854e-14 5.6037563256599385e-08 9.364898066559528e-14 23.347955542649164" Properties=species:S:1:pos:R:3 unique_starting_index=4 config_type=initial n_minim_iter=4 stress="0.0005311156137667346 7.373415346033657e-17 1.52730798647814e-12 7.373415346033657e-17 -0.0032631626036257254 4.861468464947369e-17 1.52730798647814e-12 4.861468464947369e-17 0.0011674992282038762" pbc="T T T"
Si       1.23005320       4.28088123      15.18622258
Si       1.23005318       0.96514699       8.16173296
Si       1.23984578       3.08367928      12.85949543
Si       1.23984577       2.16234894      10.48846011
Si       1.24740634       1.65786712      19.83571073
Si       1.24740630       3.58816109       3.51224481
Si       1.23761375       5.70669339      22.16243788
Si       1.23761370      -0.46066517       1.18551766
Si       1.23224131       4.94962400       5.83370708
Si       1.23224134       0.29640422      17.51424846
Si       1.23335434       4.28053639      19.82670577
Si       1.23335431       0.96549183       3.52124977
Si       1.24521816       2.32660989       5.84027069
Si       1.24521819       2.91941833      17.50768485
Si       1.24410519       1.65752228      15.19522754
Si       1.24410517       3.58850594       8.15272800
Si       3.71485732       3.09396389      22.16930263
Si       3.71485727       2.15206433       1.17865289
Si      -1.23739779       4.77507844      10.49532487
Si      -1.23739778       0.47094978      12.85263068
20
Lattice="2.47614321499833 -1.7026522468566528e-16 -5.94300566443191e-09 3.6360189858961845e-16 5.28781217786299 -2.1074637383897992e-14 5.567949860451376e-08 9.31549116371615e-14 23.198768513584252" Properties=species:S:1:pos:R:3 unique_starting_index=4 config_type=initial n_minim_iter=5 stress="-8.848627480194404e-05 1.6451301795636486e-17 -1.5674305800799884e-12 1.6451301795636486e-17 0.0009763036205908008 4.13477717510638e-17 -1.5674305800799884e-12 4.13477717510638e-17 -0.0007415819248572141" pbc="T T T"
Si       1.23517279       4.31928844      15.09848144
Si       1.23517277       0.96852373       8.10028707
Si       1.23834295       3.11874633      12.76649928
Si       1.23834294       2.16906585      10.43226923
Si       1.24097051       1.67538236      19.69967133
Si       1.24097047       3.61242982       3.49909718
Si       1.23780035       5.76265242      22.03165348
Si       1.23780030      -0.47484024       1.16711502
Si       1.23578675       4.98011450       5.79381922
Si       1.23578677       0.30769768      17.40494928
Si       1.23650562       4.32823875      19.70495934
Si       1.23650558       0.95957343       3.49380917
Si       1.24035650       2.33620841       5.80556503
Si       1.24035652       2.95160377      17.39320348
Si       1.23963768       1.68433266      15.09319342
Si       1.23963766       3.60347951       8.10557509
Si       3.71330939       3.12286245      22.03570804
Si       3.71330934       2.16494972       1.16306046
Si      -1.23716610       4.80885581      10.43632379
Si      -1.23716609       0.47895637      12.76244473
20
Lattice="2.476598810054448 -1.7029655232210593e-16 -5.944099140763489e-09 3.6201526893791907e-16 5.264738040023623 -2.100304070981714e-14 5.5896201001062584e-08 9.342239289374723e-14 23.289057199004763" Properties=species:S:1:pos:R:3 unique_starting_index=4 config_type=initial n_minim_iter=6 stress="0.00015016079659908537 -5.367565766330109e-17 1.8053253473501373e-12 -5.367565766330109e-17 -0.001110473498611544 -2.9157923179468245e-17 1.8053253473501373e-12 -2.9157923179468245e-17 0.0009023439185580601" pbc="T T T"
Si       1.23396234       4.30198057      15.15237259
Si       1.23396233       0.96275747       8.13668460
Si       1.23879350       3.10483071      12.82229745
Si       1.23879350       2.15990733      10.46675974
Si       1.24263655       1.66961155      19.78121320
Si       1.24263651       3.59512649       3.50784399
Si       1.23780539       5.73719973      22.11128834
Si       1.23780534      -0.47246169       1.17776885
Si       1.23497739       4.95922038       5.81830334
Si       1.23497742       0.30551766      17.47075386
Si       1.23575921       4.30557059      19.78166814
Si       1.23575917       0.95916745       3.50738906
Si       1.24162145       2.32685136       5.82622526
Si       1.24162147       2.93788668      17.46283194
Si       1.24083969       1.67320157      15.15191766
Si       1.24083967       3.59153647       8.13713954
Si       3.71391682       3.11002584      22.11543281
Si       3.71391677       2.15471220       1.17362437
Si      -1.23731793       4.78708122      10.47090422
Si      -1.23731793       0.47765682      12.81815299
20
Lattice="2.4760444379999913 -1.702584331653288e-16 -5.942768589186389e-09 3.633139167272702e-16 5.283624117224008 -2.1081965028006335e-14 5.5618873971619826e-08 9.294760738813794e-14 23.17350936326902" Properties=species:S:1:pos:R:3 unique_starting_index=4 config_type=initial n_minim_iter=7 stress="-0.00028298738089338303 -2.275336707644345e-17 -6.479373398156112e-13 -2.275336707644345e-17 -0.0015098623246011772 1.1009134236268599e-16 -6.479373398156112e-13 1.1009134236268599e-16 -0.0005529385669087489" pbc="T T T"
Si       1.25822510       4.36461618      15.09021972
Si       1.25822509       0.91900794       8.08328964
Si       1.23506782       3.18609790      12.74690847
Si       1.23506781       2.09752622      10.42660088
Si       1.21781942       1.72280412      19.67004432
Si       1.21781938       3.56082000       3.50346504
Si       1.24097670       5.82790996      22.01335557
Si       1.24097665      -0.54428584       1.16015379
Si       1.25265480       4.92302730       5.79164722
Si       1.25265482       0.36059681      17.38186214
Si       1.25137274       4.37613361      19.71668789
Si       1.25137271       0.90749050       3.45682147
Si       1.22338967       2.28121524       5.79510745
Si       1.22338970       3.00240887      17.37840190
Si       1.22467178       1.73432155      15.04357615
Si       1.22467176       3.54930256       8.12993320
Si       3.71523713       3.16010248      21.99945052
Si       3.71523708       2.12352164       1.17405882
Si      -1.23919262       4.76533370      10.41269586
Si      -1.23919261       0.51829042      12.76081351
20
Lattice="2.4760044953503373 -1.7025568615908192e-16 -5.9426727226017314e-09 3.6443502376652597e-16 5.299928208551687 -2.1185685708298564e-14 5.550133718723818e-08 9.258343538768364e-14 23.124537861710287" Properties=species:S:1:pos:R:3 unique_starting_index=4 config_type=initial n_minim_iter=8 stress="-5.03727976012953e-05 1.1273689970136374e-16 -5.88141107464316e-13 1.1273689970136374e-16 -2.3640471754139565e-05 1.84302323790717e-17 -5.88141107464316e-13 1.84302323790717e-17 -0.0002954192062843865" pbc="T T T"
Si       1.26652415       4.39886689      15.06015726
Si       1.26652413       0.90106131       8.06438059
Si       1.23391499       3.22385999      12.71780357
Si       1.23391498       2.07606821      10.40673429
Si       1.20948043       1.74890279      19.62664953
Si       1.20948039       3.55102542       3.49788833
Si       1.24208959       5.87382410      21.96900322
Si       1.24208954      -0.57389589       1.15553464
Si       1.25874128       4.91615168       5.78140958
Si       1.25874130       0.38377653      17.34312828
Si       1.25669525       4.41046857      19.68644790
Si       1.25669521       0.88945964       3.43808995
Si       1.21726325       2.26618758       5.78085935
Si       1.21726327       3.03374063      17.34367851
Si       1.21930933       1.76050447      15.00035888
Si       1.21930931       3.53942374       8.12417897
Si       3.71598832       3.18694544      21.94836469
Si       3.71598827       2.11298277       1.17617315
Si      -1.23998374       4.76294687      10.38609577
Si      -1.23998374       0.53698133      12.73844209
20
Lattice="2.4760577564009507 -1.7025934878882233e-16 -5.9428005547576285e-09 3.659809295983697e-16 5.3224101103195185 -2.1243819269624706e-14 5.539685330380084e-08 9.25494596938296e-14 23.08100482915767" Properties=species:S:1:pos:R:3 unique_starting_index=4 config_type=initial n_minim_iter=9 stress="0.0005736893219606621 3.992092540770373e-17 1.3137213812812796e-12 3.992092540770373e-17 0.0025681503837107003 8.52718580267304e-17 1.3137213812812796e-12 8.52718580267304e-17 0.0011210669640153309" pbc="T T T"
Si       1.27646748       4.46198524      15.02823361
Si       1.27646746       0.86042487       8.05277121
Si       1.23278076       3.28791323      12.68902910
Si       1.23278076       2.03449688      10.39197572
Si       1.19959036       1.80078019      19.59327363
Si       1.19959032       3.52162992       3.48773120
Si       1.24327708       5.94911829      21.93247814
Si       1.24327703      -0.62670818       1.14852669
Si       1.26614703       4.89195136       5.77557658
Si       1.26614706       0.43045875      17.30542824
Si       1.26292867       4.47017169      19.65945155
Si       1.26292863       0.85223842       3.42155327
Si       1.20991076       2.23074630       5.76492583
Si       1.20991078       3.09166381      17.31607900
Si       1.21312917       1.80896663      14.96205569
Si       1.21312916       3.51344348       8.11894914
Si       3.71743901       3.23815394      21.90180993
Si       3.71743896       2.08425617       1.17919488
Si      -1.24138118       4.74546122      10.36130753
Si      -1.24138117       0.57694889      12.71969731
20
Lattice="2.475761245290501 -1.7023896010898335e-16 -5.942088896724971e-09 3.657451429263401e-16 5.3189810970685585 -2.1133608850198212e-14 5.544428217437806e-08 9.305268929198695e-14 23.10076598751862" Properties=species:S:1:pos:R:3 unique_starting_index=4 config_type=initial n_minim_iter=10 stress="0.0005758493667787798 -1.5856564225667724e-17 4.1076815544500615e-12 -1.5856564225667724e-17 0.0025459202026197523 -2.326627360421643e-18 4.1076815544500615e-12 -2.326627360421643e-18 0.0022873091600775696" pbc="T T T"
Si       1.26795371       4.50960161      15.02001656
Si       1.26795369       0.80937949       8.08074942
Si       1.23445981       3.31941895      12.69248953
Si       1.23445980       1.99956214      10.40827645
Si       1.20780762       1.85011106      19.63113241
Si       1.20780758       3.46887004       3.46963357
Si       1.24130152       5.97890950      21.95865944
Si       1.24130147      -0.65992840       1.14210654
Si       1.26021471       4.84169183       5.78744554
Si       1.26021474       0.47728927      17.31332044
Si       1.25683127       4.50725510      19.65198200
Si       1.25683123       0.81172599       3.44878398
Si       1.21554656       2.18220128       5.76293745
Si       1.21554659       3.13677981      17.33782853
Si       1.21893006       1.84776456      14.99916697
Si       1.21893004       3.47121654       8.10159901
Si       3.71764077       3.28235189      21.92750124
Si       3.71764072       2.03662921       1.17326473
Si      -1.24187944       4.69611976      10.37711826
Si      -1.24187944       0.62286134      12.72364774
20
Lattice="2.475580067504285 -1.7022650052297215e-16 -5.941654050871457e-09 3.6496171424095725e-16 5.307587761002531 -2.1138949702156858e-14 5.539744559656075e-08 9.274980940676176e-14 23.08125160693" Properties=species:S:1:pos:R:3 unique_starting_index=4 config_type=initial n_minim_iter=11 stress="4.6716284746318765e-06 3.7704156691450216e-17 1.1398339056622365e-13 3.7704156691450216e-17 -0.00029147662894147744 8.290653065146544e-17 1.1398339056622365e-13 8.290653065146544e-17 5.2139135522469484e-05" pbc="T T T"
Si       1.25757177       4.52961951      14.99358283
Si       1.25757175       0.77796825       8.08766877
Si       1.23629321       3.32556224      12.67343076
Si       1.23629320       1.98202552      10.40782084
Si       1.21800838       1.87582563      19.62829458
Si       1.21800834       3.43176213       3.45295702
Si       1.23928694       5.97935612      21.94844664
Si       1.23928689      -0.67176836       1.13280496
Si       1.25282580       4.80220106       5.78520325
Si       1.25282582       0.50538670      17.29604836
Si       1.24970011       4.52411826      19.61095599
Si       1.24970007       0.78346950       3.47029561
Si       1.22275430       2.14840718       5.75542255
Si       1.22275433       3.15918058      17.32582905
Si       1.22588004       1.87032438      15.01092141
Si       1.22588002       3.43726339       8.07033019
Si       3.71748298       3.30488950      21.92076084
Si       3.71748293       2.00269827       1.16049075
Si      -1.24190284       4.65649215      10.38013505
Si      -1.24190283       0.65109562      12.70111656
20
Lattice="2.4753520451925866 -1.7021082274942146e-16 -5.941106773201151e-09 3.6521318544475582e-16 5.311244917194206 -2.1069200310081283e-14 5.535754460983779e-08 9.305559057411124e-14 23.064626928589686" Properties=species:S:1:pos:R:3 unique_starting_index=4 config_type=initial n_minim_iter=12 stress="-0.000114469056474074 -3.8410954764638695e-17 -7.550933875568811e-14 -3.8410954764638695e-17 -2.024366701157166e-05 9.177175392616424e-17 -7.550933875568811e-14 9.177175392616424e-17 -0.00014596084158747245" pbc="T T T"
Si       1.24843771       4.51876750      14.98542757
Si       1.24843769       0.79247741       8.07919935
Si       1.23735656       3.30441335      12.66676192
Si       1.23735655       2.00683157      10.39786501
Si       1.22691442       1.86314505      19.61151282
Si       1.22691438       3.44809987       3.45311411
Si       1.23799557       5.96003581      21.93017847
Si       1.23799552      -0.64879089       1.13444845
Si       1.24603596       4.81472712       5.77590687
Si       1.24603599       0.49651780      17.28872005
Si       1.24381778       4.52252288      19.58955293
Si       1.24381774       0.78872203       3.47507399
Si       1.22931611       2.15910466       5.75640658
Si       1.22931614       3.15214026      17.30822034
Si       1.23153435       1.86690042      15.00738746
Si       1.23153433       3.44434449       8.05723946
Si       3.71622344       3.29935199      21.91148856
Si       3.71622339       2.01189293       1.15313835
Si      -1.24087132       4.66751538      10.37917511
Si      -1.24087131       0.64372953      12.68545183
20
Lattice="2.4750851958760043 -1.7019247226138837e-16 -5.94046630661166e-09 3.664546956907256e-16 5.329299993251307 -2.1306063493458647e-14 5.515910173349806e-08 9.200453508158176e-14 22.98194604124775" Properties=species:S:1:pos:R:3 unique_starting_index=4 config_type=initial n_minim_iter=13 stress="-0.0003291407894862628 -3.762699474412025e-18 -2.7326036387256357e-12 -3.762699474412025e-18 0.0009553557923450041 4.595139284943272e-18 -2.7326036387256357e-12 4.595139284943272e-18 -0.0014676493454466456" pbc="T T T"
Si       1.24833678       4.56869545      14.93654262
Si       1.24833677       0.76060454       8.04540342
Si       1.23718750       3.34411681      12.62395404
Si       1.23718749       1.98518318      10.35799200
Si       1.22674849       1.90404545      19.53637644
Si       1.22674846       3.42525454       3.44556960
Si       1.23789778       6.00876681      21.84896502
Si       1.23789773      -0.67946682       1.13298102
Si       1.24586730       4.78449389       5.75149463
Si       1.24586733       0.54480610      17.23045141
Si       1.24367493       4.58777040      19.53098996
Si       1.24367489       0.74152960       3.45095607
Si       1.22921793       2.11984390       5.73947839
Si       1.22921795       3.20945610      17.24246765
Si       1.23141035       1.92312040      14.94192909
Si       1.23141033       3.40617959       8.04001694
Si       3.71595009       3.34606230      21.83295974
Si       3.71595004       1.98323769       1.14898628
Si      -1.24086481       4.64788769      10.34198674
Si      -1.24086481       0.68141231      12.63995931
20
Lattice="2.4754651788143116 -1.7021860127199207e-16 -5.941378305861568e-09 3.6578884096862287e-16 5.319616578411904 -2.132256658893007e-14 5.5264074484264626e-08 9.193696592320227e-14 23.025682759542665" Properties=species:S:1:pos:R:3 unique_starting_index=4 config_type=initial n_minim_iter=14 stress="1.0851828264993494e-06 1.9513780552137154e-17 -1.4753619289954235e-12 1.9513780552137154e-17 0.0004001839572602499 9.409229811444828e-17 -1.4753619289954235e-12 9.409229811444828e-17 -0.0006136262022325282" pbc="T T T"
Si       1.24377481       4.56126675      14.96255979
Si       1.24377479       0.75834983       8.06312297
Si       1.23796476       3.33195140      12.65668057
Si       1.23796475       1.98766518      10.36900218
Si       1.23169046       1.90145846      19.57596435
Si       1.23169042       3.41815812       3.44971841
Si       1.23750051       5.99175969      21.88184356
Si       1.23750046      -0.67214311       1.14383919
Si       1.24253406       4.77394961       5.76192119
Si       1.24253409       0.54566697      17.26376157
Si       1.24081037       4.57973461      19.56880378
Si       1.24081033       0.73988197       3.45687897
Si       1.23293114       2.11414132       5.75092019
Si       1.23293117       3.20547526      17.27476257
Si       1.23465489       1.91992632      14.96972035
Si       1.23465487       3.39969025       8.05596240
Si       3.71601911       3.34062777      21.87018102
Si       3.71601906       1.97898881       1.15550172
Si      -1.24055385       4.63879710      10.35733965
Si      -1.24055385       0.68081948      12.66834311
20
Lattice="2.4755049680422507 -1.7022133709821452e-16 -5.941473804217883e-09 3.652349728948896e-16 5.31156174401045 -2.1219343119459468e-14 5.5352981780469654e-08 9.23977928133605e-14 23.062725833484112" Properties=species:S:1:pos:R:3 unique_starting_index=4 config_type=initial n_minim_iter=15 stress="5.962451430412004e-05 5.740751002097136e-17 3.423325172079282e-15 5.740751002097136e-17 -0.00010682865346396432 1.7809186929318591e-16 3.423325172079282e-15 1.7809186929318591e-16 6.109046260770353e-05" pbc="T T T"
Si       1.24125809       4.56228663      14.98517140
Si       1.24125808       0.74927511       8.07755443
Si       1.23830929       3.32931964      12.68005571
Si       1.23830928       1.98224211      10.38267012
Si       1.23424696       1.90650576      19.60891735
Si       1.23424692       3.40505598       3.45380848
Si       1.23719576       5.98510051      21.91403303
Si       1.23719571      -0.67353877       1.14869279
Si       1.24068745       4.75792650       5.77133115
Si       1.24068747       0.55363525      17.29139468
Si       1.23918821       4.57989872      19.59989636
Si       1.23918817       0.73166302       3.46282947
Si       1.23481755       2.10214562       5.76003176
Si       1.23481758       3.20941612      17.30269407
Si       1.23631684       1.92411785      14.99419238
Si       1.23631682       3.38744390       8.06853344
Si       3.71586348       3.34090565      21.90465349
Si       3.71586343       1.97065609       1.15807232
Si      -1.24035843       4.62643696      10.37329059
Si      -1.24035843       0.68512478      12.68943525
20
Lattice="2.4754067099284702 -1.7021458051203642e-16 -5.941237974350191e-09 3.6425470068258166e-16 5.2973057767454135 -2.115832568588889e-14 5.552490859057105e-08 9.269946426319589e-14 23.13435884686936" Properties=species:S:1:pos:R:3 unique_starting_index=4 config_type=initial n_minim_iter=16 stress="7.097248227960674e-05 6.23464302558827e-17 3.6184863524663664e-12 6.23464302558827e-17 -0.0008737575043452372 9.932784201801947e-17 3.6184863524663664e-12 9.932784201801947e-17 0.001578649893540494" pbc="T T T"
Si       1.23522408       4.57490260      15.03132368
Si       1.23522407       0.72240317       8.10303516
Si       1.23885894       3.32832941      12.72579722
Si       1.23885894       1.96897636      10.40856162
Si       1.24018271       1.92624971      19.67021459
Si       1.24018267       3.37105606       3.46414426
Si       1.23654785       5.97698230      21.97574104
Si       1.23654780      -0.67967653       1.15861780
Si       1.23618845       4.71798776       5.78951583
Si       1.23618848       0.57931802      17.34484301
Si       1.23539076       4.58840321      19.66116096
Si       1.23539072       0.70890257       3.47319788
Si       1.23921829       2.06933487       5.77766358
Si       1.23921832       3.22797091      17.35669526
Si       1.24001603       1.93975032      15.04037730
Si       1.24001602       3.35755546       8.09398154
Si       3.71495640       3.34278003      21.97326564
Si       3.71495635       1.95452575       1.16109319
Si      -1.23954962       4.60317864      10.40608622
Si      -1.23954961       0.69412714      12.72827263
20
Lattice="2.4754380947453765 -1.702167390245276e-16 -5.941313301230926e-09 3.6528946127410386e-16 5.3123541719858505 -2.1284235667133688e-14 5.53465545597867e-08 9.211441672016281e-14 23.060047942904138" Properties=species:S:1:pos:R:3 unique_starting_index=4 config_type=initial n_minim_iter=17 stress="0.00010218466338238583 2.3898964888993163e-17 8.762234983695941e-13 2.3898964888993163e-17 -2.912986301274343e-05 3.300848471047937e-17 8.762234983695941e-13 3.300848471047937e-17 0.0004672578452390237" pbc="T T T"
Si       1.23052005       4.61398223      14.99289704
Si       1.23052003       0.69837194       8.06715089
Si       1.23876913       3.33986512      12.68784689
Si       1.23876912       1.97248905      10.37220105
Si       1.24491813       1.95780515      19.59717487
Si       1.24491809       3.35454902       3.46287307
Si       1.23666905       5.99604221      21.90222502
Si       1.23666900      -0.68368803       1.15782292
Si       1.23253019       4.70391973       5.77009398
Si       1.23253022       0.60843445      17.28995396
Si       1.23290803       4.61698090      19.60125215
Si       1.23290799       0.69537327       3.45879579
Si       1.24290793       2.04774264       5.75992998
Si       1.24290796       3.26461153      17.30011795
Si       1.24253015       1.96080381      14.98881976
Si       1.24253014       3.35155036       8.07122818
Si       3.71345908       3.34363957      21.90975050
Si       3.71345903       1.96871461       1.15029742
Si      -1.23802091       4.62489169      10.37972655
Si      -1.23802090       0.68746248      12.68032140
20
Lattice="2.475336032644546 -1.7020972059664514e-16 -5.941068341391893e-09 3.6560395910020537e-16 5.316927859622457 -2.1358106281342247e-14 5.527850431954832e-08 9.17558771327339e-14 23.031694925902354" Properties=species:S:1:pos:R:3 unique_starting_index=4 config_type=initial n_minim_iter=18 stress="-4.660643299127183e-06 3.92490070130582e-17 -2.1689076789699255e-13 3.92490070130582e-17 5.326201104841408e-06 5.088294584313505e-17 -2.1689076789699255e-13 5.088294584313505e-17 -9.502905003705286e-05" pbc="T T T"
Si       1.22738055       4.62550803      14.97919900
Si       1.22738054       0.69141983       8.05249592
Si       1.23870655       3.33690133      12.67436369
Si       1.23870654       1.98002652      10.35733123
Si       1.24795556       1.96704410      19.56834338
Si       1.24795552       3.34988376       3.46335154
Si       1.23662957       5.99536526      21.87317869
Si       1.23662952      -0.67843741       1.15851623
Si       1.23009186       4.70021028       5.76194911
Si       1.23009189       0.61671758      17.26974581
Si       1.23119069       4.62226569      19.57764010
Si       1.23119065       0.69466217       3.45405482
Si       1.24524420       2.04174635       5.75389834
Si       1.24524423       3.27518151      17.27779658
Si       1.24414543       1.96380176      14.96990228
Si       1.24414541       3.35312610       8.06179264
Si       3.71234158       3.33573443      21.88614002
Si       3.71234153       1.98119343       1.14555489
Si      -1.23700547       4.63965736      10.37029256
Si      -1.23700546       0.67727050      12.66140237
20
Lattice="2.4752289439540087 -1.7020235505843734e-16 -5.94081131720581e-09 3.658193151106094e-16 5.320059692718065 -2.133130064037469e-14 5.524550805097213e-08 9.18735274115387e-14 23.017947086649208" Properties=species:S:1:pos:R:3 unique_starting_index=4 config_type=initial n_minim_iter=19 stress="-6.134602622714034e-05 1.0688007731062591e-16 -3.5387605213268487e-13 1.0688007731062591e-16 0.00018186690895340135 8.376194838734515e-17 -3.5387605213268487e-13 8.376194838734515e-17 -0.00020877276073920234" pbc="T T T"
Si       1.22571782       4.63627367      14.97034836
Si       1.22571780       0.68378602       8.04759872
Si       1.23847420       3.33186994      12.66745288
Si       1.23847419       1.98818976      10.35049420
Si       1.24951121       1.97624383      19.55657226
Si       1.24951117       3.34381587       3.46137482
Si       1.23675483       5.99189978      21.85946774
Si       1.23675478      -0.67184009       1.15847934
Si       1.22876725       4.69353401       5.75583022
Si       1.22876727       0.62652569      17.26211686
Si       1.23041608       4.62752234      19.56511872
Si       1.23041604       0.69253736       3.45282837
Si       1.24646173       2.03350416       5.75314332
Si       1.24646175       3.28655553      17.26480376
Si       1.24481295       1.96749249      14.96180191
Si       1.24481293       3.35256720       8.05614517
Si       3.71136790       3.32788731      21.87353680
Si       3.71136785       1.99217238       1.14441027
Si      -1.23613888       4.65220223      10.36456327
Si      -1.23613888       0.66785747      12.65338382
20
Lattice="2.475221273939384 -1.7020182773911045e-16 -5.9407929083593105e-09 3.659177040882571e-16 5.321490552652564 -2.1334683499973155e-14 5.523046273345218e-08 9.185866320716589e-14 23.011678480661256" Properties=species:S:1:pos:R:3 unique_starting_index=4 config_type=initial n_minim_iter=20 stress="-4.0324780423919894e-05 2.080720351551517e-18 -4.2028322947447595e-13 2.080720351551517e-18 0.00025508882110943055 1.7818291832935753e-17 -4.2028322947447595e-13 1.7818291832935753e-17 -0.00021541903281660306" pbc="T T T"
Si       1.22873279       4.65688856      14.96017000
Si       1.22873277       0.66460199       8.05150848
Si       1.23739232       3.32379830      12.65976055
Si       1.23739231       1.99769225      10.35191792
Si       1.24648857       1.99614328      19.55734772
Si       1.24648853       3.32534727       3.45433076
Si       1.23782904       5.98454358      21.85775716
Si       1.23782899      -0.66305302       1.15392131
Si       1.23085606       4.66720616       5.74468189
Si       1.23085609       0.65428439      17.26699658
Si       1.23293633       4.64495825      19.55993592
Si       1.23293629       0.67653230       3.45174255
Si       1.24436524       2.00646088       5.76115734
Si       1.24436527       3.31502967      17.25052113
Si       1.24228503       1.98421297      14.95758179
Si       1.24228501       3.33727758       8.05409668
Si       3.71042630       3.31772252      21.86335938
Si       3.71042625       2.00376804       1.14831908
Si      -1.23520495       4.66451331      10.35752015
Si      -1.23520494       0.65697724      12.65415833
20
Lattice="2.4752836250746517 -1.7020611509012614e-16 -5.940942557680008e-09 3.657056147978242e-16 5.318406164436828 -2.1283615509816564e-14 5.526327460073939e-08 9.20840068436182e-14 23.025349489430585" Properties=species:S:1:pos:R:3 unique_starting_index=4 config_type=initial n_minim_iter=21 stress="1.3328635501174059e-05 9.508986635269548e-18 -2.215298708616234e-15 9.508986635269548e-18 7.490121695127573e-05 -2.1423745100850285e-17 -2.215298708616234e-15 -2.1423745100850285e-17 1.2386633843372194e-05" pbc="T T T"
Si       1.23149059       4.65247727      14.96746170
Si       1.23149057       0.66592890       8.05788778
Si       1.23725176       3.32619828      12.66498474
Si       1.23725175       1.99220789      10.36036474
Si       1.24379312       1.99327419      19.57056253
Si       1.24379308       3.32513198       3.45478696
Si       1.23803195       5.98540136      21.87303948
Si       1.23803190      -0.66699519       1.15231000
Si       1.23294181       4.66496544       5.74803213
Si       1.23294184       0.65344072      17.27731735
Si       1.23458552       4.64506797      19.57238178
Si       1.23458548       0.67333819       3.45296770
Si       1.24234184       2.00576236       5.76464261
Si       1.24234187       3.31264381      17.26070688
Si       1.24069819       1.98586489      14.96564245
Si       1.24069817       3.33254127       8.05970703
Si       3.71106834       3.32203998      21.87507677
Si       3.71106829       1.99636618       1.15027270
Si      -1.23578463       4.65556926      10.36240203
Si      -1.23578463       0.66283690      12.66294746
