12
Lattice="8.086934053131555 2.3909969258391626 -1.6216720913880205 5.292815221612519 7.3539596108288405 1.1824192806531737 1.7603787654574177 2.2712174241802363 5.297284367814125" Properties=species:S:1:pos:R:3 unique_starting_index=78 config_type=initial n_minim_iter=1 energy=-1954.6011350477343 free_energy=-1954.6011350477343 pbc="T T T"
Si       3.34669458       4.99786076       2.22789756
Si      10.01768665       5.50657850       0.88910849
Si      13.49599109       9.93600870       2.43146505
Si       6.96120004       4.47288805       2.00862540
Si       8.58989867       6.03051272       2.79252679
Si       9.69094966      10.71016135       6.80585427
Si       8.48516095       2.68616289      -1.14359730
Si       8.27381435       8.24809790       3.91351029
Si       4.19694501       1.08698273      -1.47460113
Si       8.82572942       6.30314991      -0.98731790
Si       4.12173283       5.53651403       4.35713570
Si       6.99128129       7.78518466       6.06982856
12
Lattice="8.064800438529062 2.3779179690870738 -1.6268597899093706 5.267742283950878 7.345852875643477 1.18076599601497 1.7456909616476863 2.2737381826568797 5.287046317089938" Properties=species:S:1:pos:R:3 unique_starting_index=78 config_type=initial n_minim_iter=2 stress="-0.0027049220313773758 -0.00011552537481717674 -0.00046376552861612547 -0.00011552537481717674 -0.002091200729540134 0.0002757967079667877 -0.00046376552861612547 0.0002757967079667877 -0.0019565279439250722" pbc="T T T"
Si       3.32829220       4.99329348       2.22511833
Si       9.98430236       5.49268797       0.87995583
Si      13.44428829       9.91807374       2.41940882
Si       6.93345034       4.46337397       2.00169699
Si       8.55717008       6.01910998       2.78211752
Si       9.64070920      10.70272715       6.78910980
Si       8.46121970       2.67338023      -1.15109786
Si       8.23538378       8.23911419       3.90228593
Si       4.18787538       1.07910332      -1.47593839
Si       8.79464458       6.28851640      -0.98985391
Si       4.09768274       5.53556720       4.34909365
Si       6.95516472       7.77862291       6.05687617
12
Lattice="8.06857232839505 2.3591949377178 -1.642980369391355 5.243517769240139 7.373392459284777 1.1849165214546782 1.72575009356444 2.293148900735526 5.2910112962498985" Properties=species:S:1:pos:R:3 unique_starting_index=78 config_type=initial n_minim_iter=3 stress="-0.0005747571717955001 -0.0015618542734483524 -0.002154220154758303 -0.0015618542734483524 0.0030489907494199 0.00174220578887641 -0.002154220154758303 0.00174220578887641 0.0018720295505476594" pbc="T T T"
Si       3.30789750       5.01223006       2.23279525
Si       9.97800818       5.49132824       0.86911449
Si      13.41541346       9.93674179       2.41073160
Si       6.91518399       4.46435994       2.00232324
Si       8.54333953       6.02578192       2.77645837
Si       9.58739507      10.75506963       6.78470147
Si       8.46400732       2.65750736      -1.17242985
Si       8.20034234       8.26933231       3.89688081
Si       4.19794115       1.06470152      -1.48353168
Si       8.77882949       6.29232506      -0.99557584
Si       4.06973609       5.57157501       4.35518451
Si       6.92079244       7.80847031       6.06059155
12
Lattice="8.090825734056908 2.3517212434497705 -1.6182814674431825 5.255196944253412 7.369085679489688 1.1800603267478085 1.7420412719269416 2.283734224325319 5.264000951275883" Properties=species:S:1:pos:R:3 unique_starting_index=78 config_type=initial n_minim_iter=4 stress="0.0006537839635329313 -0.0014150398609030519 -1.985025879708605e-05 -0.0014150398609030519 0.001474959475172189 0.0014441961031798087 -1.985025879708605e-05 0.0014441961031798087 -0.0008590903959837221" pbc="T T T"
Si       3.31923297       4.99927777       2.22814242
Si      10.02064912       5.47828996       0.88465202
Si      13.45495409       9.92727566       2.41850053
Si       6.93193660       4.44242882       2.01520657
Si       8.58646981       6.00364314       2.77434623
Si       9.61068035      10.75578585       6.73707233
Si       8.48948359       2.64978490      -1.16035202
Si       8.21989413       8.26062893       3.87050681
Si       4.22008497       1.05483647      -1.46275548
Si       8.79134642       6.28672623      -0.97364244
Si       4.08407920       5.57898212       4.33821171
Si       6.95448138       7.78433004       6.03435036
12
Lattice="8.09587979269168 2.370460242375725 -1.6398885577922941 5.2638728339364675 7.369820684200756 1.1386902753503956 1.7391633323159967 2.2599974262118065 5.253501408437518" Properties=species:S:1:pos:R:3 unique_starting_index=78 config_type=initial n_minim_iter=5 stress="5.943767811439982e-05 0.0008661069677371933 -0.0012450853888433617 0.0008661069677371933 -0.0009201789151426303 -0.00013611892582280185 -0.0012450853888433617 -0.00013611892582280185 0.0010367123440812231" pbc="T T T"
Si       3.32534460       4.98341249       2.20851194
Si      10.04065442       5.48512768       0.85098020
Si      13.46383647       9.94265163       2.35892650
Si       6.92833468       4.42918751       2.00131677
Si       8.60643918       5.98917568       2.73824995
Si       9.60108846      10.76079403       6.65119844
Si       8.49510996       2.66541572      -1.19624906
Si       8.21720024       8.25555537       3.80447233
Si       4.23805370       1.05521562      -1.46387236
Si       8.79038646       6.30397334      -1.00820483
Si       4.08074415       5.58333233       4.31601570
Si       6.96426124       7.75155349       5.99309983
12
Lattice="8.066993395775512 2.3485535124108123 -1.5844167209956825 5.222406687968339 7.3984283355922535 1.1272622054301833 1.760179208744021 2.2421008242757523 5.212752812471374" Properties=species:S:1:pos:R:3 unique_starting_index=78 config_type=initial n_minim_iter=6 stress="-0.000861577148972135 -4.928296259329959e-06 0.003695148845143164 -4.928296259329959e-06 0.000488926826703044 -0.0023542844910732887 0.003695148845143164 -0.0023542844910732887 -0.0021153055155136422" pbc="T T T"
Si       3.31668593       4.98363716       2.19890132
Si      10.02673452       5.46203700       0.88827575
Si      13.41128106       9.95302676       2.38127987
Si       6.90277481       4.39992219       2.03269196
Si       8.60336674       5.95542705       2.74721224
Si       9.54759314      10.81838928       6.56002128
Si       8.46760538       2.63178242      -1.15812376
Si       8.17304542       8.26059278       3.75104651
Si       4.24441717       1.01832268      -1.40435077
Si       8.72217780       6.31038500      -0.96027488
Si       4.05915329       5.62199015       4.29747957
Si       6.96352225       7.72654905       5.95825066
12
Lattice="8.111517638142324 2.30880291296948 -1.5777154391909318 5.220424306359343 7.390220903150199 1.135332058298958 1.7550969611908112 2.252509276350909 5.188204633966053" Properties=species:S:1:pos:R:3 unique_starting_index=78 config_type=initial n_minim_iter=7 stress="0.002948612572312028 0.0011980619522039629 0.0015459756434514744 0.0011980619522039629 -0.0022554244091168053 -0.0008885613399218081 0.0015459756434514744 -0.0008885613399218081 -0.0030934784368472287" pbc="T T T"
Si       3.32621229       4.97574732       2.20437634
Si      10.07790246       5.41900766       0.88580049
Si      13.45233544       9.93054938       2.37758908
Si       6.92179854       4.37426783       2.04195500
Si       8.63956258       5.91714409       2.74498829
Si       9.52972784      10.87341433       6.49575326
Si       8.51018071       2.57378359      -1.16162660
Si       8.17228604       8.24178498       3.70296666
Si       4.29260953       0.96156783      -1.36662812
Si       8.73510628       6.27400481      -0.93156500
Si       4.03792347       5.65622414       4.30289620
Si       6.97742830       7.70753541       5.94508659
12
Lattice="8.049612389932443 2.2507659341208326 -1.5618736441430014 5.136348838492848 7.395758185026789 1.1779114766006962 1.7354647459765562 2.27398987880726 5.21870920619604" Properties=species:S:1:pos:R:3 unique_starting_index=78 config_type=initial n_minim_iter=8 stress="0.0012527204906231295 0.00022562248530267706 0.0005523813330848212 0.00022562248530267706 -0.0030527701744358956 -7.077113112126989e-05 0.0005523813330848212 -7.077113112126989e-05 0.0006807410592786448" pbc="T T T"
Si       3.29467240       4.98967414       2.24096547
Si       9.98130111       5.36309729       0.91657262
Si      13.31403925       9.90781555       2.43892057
Si       6.86192558       4.36211245       2.08016292
Si       8.54513084       5.88797739       2.80162005
Si       9.39143929      10.95760869       6.53753377
Si       8.44069700       2.48633722      -1.13819516
Si       8.06815743       8.22241452       3.71736435
Si       4.27903906       0.88520885      -1.32039639
Si       8.62577099       6.22848748      -0.88072670
Si       3.95582869       5.69838559       4.36887491
Si       6.89915838       7.71417206       6.01618346
12
Lattice="8.034935359149658 2.281986200263245 -1.5778331680003137 5.139438724207121 7.440474985242262 1.1772125179450386 1.7233421196313983 2.2970914068306127 5.2166570402810954" Properties=species:S:1:pos:R:3 unique_starting_index=78 config_type=initial n_minim_iter=9 stress="-7.10331202869697e-05 0.002649332030983871 -0.0011989967794749994 0.002649332030983871 0.0019140079638525567 0.0002733278342686266 -0.0011989967794749994 0.0002733278342686266 -0.0013948066613948071" pbc="T T T"
Si       3.29316200       5.03100184       2.23760015
Si       9.94914059       5.41560025       0.89566558
Si      13.29806898       9.98345582       2.42008529
Si       6.85504893       4.41229884       2.05621837
Si       8.51565615       5.95307136       2.79132471
Si       9.39390160      11.01698617       6.55600372
Si       8.42371226       2.52290888      -1.14471063
Si       8.06688161       8.27801140       3.72181417
Si       4.25974619       0.91003915      -1.33972894
Si       8.62654909       6.27370681      -0.89708447
Si       3.95184926       5.72198054       4.35842349
Si       6.88119378       7.78727578       6.00802167
12
Lattice="8.013802478052487 2.231220411321366 -1.579063742410803 5.092577312211683 7.398961548722627 1.1824006220314267 1.7110966197166735 2.282996456802459 5.232869436002776" Properties=species:S:1:pos:R:3 unique_starting_index=78 config_type=initial n_minim_iter=10 stress="-3.211985899481536e-05 -0.0021059302846097028 -0.0010323887209818185 -0.0021059302846097028 -0.0006668500813815979 -0.000457189706514824 -0.0010323887209818185 -0.000457189706514824 0.0011952121876753587" pbc="T T T"
Si       3.26420478       5.00444745       2.24904221
Si       9.90485462       5.34697185       0.90068201
Si      13.23107104       9.89065962       2.43382814
Si       6.82635809       4.36365235       2.06349109
Si       8.47341334       5.89567120       2.80791044
Si       9.32743745      10.94642719       6.58513938
Si       8.40143165       2.47060110      -1.14388251
Si       8.01569869       8.21243789       3.73153788
Si       4.25051014       0.88287715      -1.34643043
Si       8.58021795       6.21138052      -0.89656727
Si       3.91471641       5.68992859       4.36980573
Si       6.83420354       7.73880396       6.02727171
12
Lattice="7.979539275594376 2.2106194953180562 -1.5472321303226937 5.054300602066863 7.423535823234468 1.2097949246250803 1.7148310571961882 2.298013519939693 5.235699955039874" Properties=species:S:1:pos:R:3 unique_starting_index=78 config_type=initial n_minim_iter=11 stress="-0.000590011868482389 -0.002216450540522562 0.00044909349444983244 -0.002216450540522562 0.0008311704647950145 0.0006708923864006117 0.00044909349444983244 0.0006708923864006117 0.00039678744536531283" pbc="T T T"
Si       3.25133768       5.01867768       2.27688477
Si       9.86199246       5.33467288       0.93932426
Si      13.16848099       9.91215656       2.49342747
Si       6.79670914       4.35513826       2.09849961
Si       8.44649138       5.89427625       2.85370417
Si       9.27202263      11.01969902       6.61064436
Si       8.36680947       2.44831434      -1.11803693
Si       7.97047775       8.22480731       3.73785388
Si       4.24726012       0.85230376      -1.32386622
Si       8.51802977       6.20733734      -0.85044206
Si       3.88315594       5.73408115       4.39126317
Si       6.81447424       7.76288238       6.05531705
12
Lattice="7.967199758285588 2.214851210465129 -1.5389704611381827 5.052066120765902 7.4259010936146 1.2171992680658328 1.720676558804664 2.2978303886787668 5.245061272818594" Properties=species:S:1:pos:R:3 unique_starting_index=78 config_type=initial n_minim_iter=12 stress="-0.00043853784255141467 -0.0008577035863057246 0.0005669308679592473 -0.0008577035863057246 0.00028674586695012934 0.0004762600671478733 0.0005669308679592473 0.0004762600671478733 0.0002097874942855455" pbc="T T T"
Si       3.25487016       5.01901998       2.29188668
Si       9.84286305       5.33501369       0.95045161
Si      13.16101959       9.92329026       2.51618682
Si       6.79391967       4.35302264       2.10787545
Si       8.44219275       5.89829771       2.88028488
Si       9.27719410      11.03673086       6.63728393
Si       8.35526150       2.45629831      -1.10952153
Si       7.96858148       8.21589603       3.73723915
Si       4.24325445       0.84807611      -1.32634398
Si       8.50107118       6.20623333      -0.83960590
Si       3.87833535       5.74032383       4.39922856
Si       6.82216644       7.77192249       6.07070780
12
Lattice="7.963210704386705 2.219848397360692 -1.5408213139424445 5.05234183688116 7.426816844561512 1.2116321465324118 1.7216776587614142 2.2932003998602872 5.246604483538189" Properties=species:S:1:pos:R:3 unique_starting_index=78 config_type=initial n_minim_iter=13 stress="0.00010285295621607438 0.00031953681211902273 5.168278992399028e-07 0.00031953681211902273 -9.681445920884429e-05 -0.00021722434740949274 5.168278992399028e-07 -0.00021722434740949274 -0.00021640277441829564" pbc="T T T"
Si       3.25561272       5.01652556       2.29425969
Si       9.82903476       5.33513709       0.94549859
Si      13.16228784       9.92920157       2.51228028
Si       6.79428683       4.35152541       2.10219928
Si       8.43993264       5.89846418       2.88907136
Si       9.28606545      11.04414832       6.64070700
Si       8.35324210       2.46722503      -1.11015692
Si       7.96798177       8.20328284       3.72025673
Si       4.24050609       0.84546263      -1.33444695
Si       8.49246647       6.20540593      -0.84365337
Si       3.87360296       5.74114128       4.39470713
Si       6.82844563       7.77645718       6.06809746
12
Lattice="7.94659964192077 2.2200279781664065 -1.5306708053859628 5.046901185136773 7.426652959462346 1.2302588817265006 1.7269265923449997 2.2984955142324637 5.265210061303213" Properties=species:S:1:pos:R:3 unique_starting_index=78 config_type=initial n_minim_iter=14 stress="8.884412531563976e-05 0.001686786548806687 -3.721155151890814e-05 0.001686786548806687 -0.0009932847955108203 0.000238929855515399 -3.721155151890814e-05 0.000238929855515399 0.00033771373621290196" pbc="T T T"
Si       3.24887892       5.01220179       2.31157210
Si       9.79472715       5.33450522       0.96736365
Si      13.15359445       9.93370421       2.55018659
Si       6.78845362       4.35405315       2.11473577
Si       8.42889275       5.89630184       2.93204533
Si       9.30226342      11.06448824       6.69564103
Si       8.34439260       2.48399976      -1.09373921
Si       7.95782576       8.18718065       3.73274689
Si       4.22442434       0.83566941      -1.34302068
Si       8.46608196       6.19601940      -0.82494989
Si       3.86972486       5.75138100       4.41665110
Si       6.83797270       7.79523545       6.10507833
12
Lattice="7.946312027412468 2.211606544603599 -1.5368939447061403 5.032864177602752 7.431999433258984 1.2118079141566833 1.7193660714387886 2.291453617094042 5.249559774932935" Properties=species:S:1:pos:R:3 unique_starting_index=78 config_type=initial n_minim_iter=15 stress="0.0005668165897428564 0.0009268577466040396 -0.000488731665935867 0.0009268577466040396 -0.00010199432345430017 -0.0007215921887110372 -0.000488731665935867 -0.0007215921887110372 -0.0003640854544233959" pbc="T T T"
Si       3.23585598       5.00940646       2.29440782
Si       9.78436533       5.32504647       0.95154310
Si      13.14041356       9.92780059       2.51798473
Si       6.78026231       4.34688514       2.09961661
Si       8.41967304       5.88072515       2.91321325
Si       9.28311446      11.07194033       6.65091747
Si       8.34842340       2.47906946      -1.10115777
Si       7.93662289       8.18038973       3.69842802
Si       4.22422922       0.82406470      -1.34368686
Si       8.45120614       6.19275200      -0.83714806
Si       3.85537296       5.75636886       4.39840495
Si       6.82564821       7.79018953       6.07886743
12
Lattice="7.938616185504011 2.1995535830462276 -1.530796175163868 5.0199477838053355 7.432364184212831 1.223263765847167 1.716960198102008 2.297984090136657 5.252506779870018" Properties=species:S:1:pos:R:3 unique_starting_index=78 config_type=initial n_minim_iter=16 stress="1.9000104257655814e-05 -0.00021515972307318345 -6.721430546886187e-06 -0.00021515972307318345 0.00010082019364652461 -7.756880169290245e-05 -6.721430546886187e-06 -7.756880169290245e-05 -0.00020856068266895652" pbc="T T T"
Si       3.22109179       5.00823703       2.29399788
Si       9.76879184       5.31792620       0.96623973
Si      13.12427153       9.91870582       2.53304708
Si       6.77063462       4.34450402       2.10828431
Si       8.40712131       5.86849750       2.92249784
Si       9.27353796      11.07963101       6.66319569
Si       8.34950727       2.47473807      -1.09224567
Si       7.91551859       8.18008715       3.71328302
Si       4.21379104       0.81400711      -1.34267809
Si       8.43292509       6.18252736      -0.82540582
Si       3.85055904       5.76362799       4.40917232
Si       6.81615986       7.79739628       6.09749531
12
Lattice="7.920132819370502 2.186573549364271 -1.526645346635049 4.997913993395983 7.437952467740793 1.2377866920659446 1.7116536903222184 2.306890573285124 5.2638605426310106" Properties=species:S:1:pos:R:3 unique_starting_index=78 config_type=initial n_minim_iter=17 stress="3.802710692530699e-05 -0.0008102687348483112 0.0003244287355818335 -0.0008102687348483112 0.00012303555062065846 0.00015256264795227917 0.0003244287355818335 0.00015256264795227917 0.00032288091380929315" pbc="T T T"
Si       3.20247440       5.01364281       2.30037514
Si       9.73282520       5.30842362       0.98446690
Si      13.09207525       9.92195480       2.55309507
Si       6.75318712       4.33513185       2.12456634
Si       8.38028554       5.85517937       2.94277452
Si       9.25275608      11.11131521       6.68311989
Si       8.34969752       2.47073541      -1.08576107
Si       7.87469309       8.17895507       3.72790672
Si       4.19815536       0.79500838      -1.34893291
Si       8.39383586       6.16813967      -0.81347796
Si       3.83374087       5.77832030       4.42434013
Si       6.79898076       7.81851220       6.13539066
12
Lattice="7.915110323462378 2.196977558058335 -1.5339923527992017 5.0014734459935175 7.443604785869709 1.2384400044753674 1.7086502841963622 2.3111309068444768 5.270015416668709" Properties=species:S:1:pos:R:3 unique_starting_index=78 config_type=initial n_minim_iter=18 stress="-3.1745127241489204e-05 0.00018760186616392836 -2.224898284709178e-05 0.00018760186616392836 8.043927186914333e-06 2.2411404254441985e-06 -2.224898284709178e-05 2.2411404254441985e-06 -0.000115717101166499" pbc="T T T"
Si       3.20627396       5.02545709       2.30564078
Si       9.72630913       5.31982788       0.98023362
Si      13.08952580       9.94297314       2.54959387
Si       6.75145721       4.33706615       2.12564469
Si       8.37311827       5.87070349       2.94242893
Si       9.25472867      11.12289613       6.69165842
Si       8.35010463       2.48031842      -1.09443027
Si       7.86981125       8.19099816       3.73510304
Si       4.19357858       0.80072256      -1.36099999
Si       8.39431655       6.17406275      -0.82211825
Si       3.83172538       5.77905255       4.42149248
Si       6.79512485       7.83519288       6.14767562
12
Lattice="7.897653766743599 2.184293734697023 -1.5314427244078914 4.979630518447636 7.447121959825432 1.2473340106441513 1.70338182685231 2.3157517616647874 5.278941110347502" Properties=species:S:1:pos:R:3 unique_starting_index=78 config_type=initial n_minim_iter=19 stress="0.00019196249445234498 5.0399667544053613e-05 -0.00013679114365672626 5.0399667544053613e-05 -6.0457015798164935e-05 -0.0002401292413326421 -0.00013679114365672626 -0.0002401292413326421 -0.0001386800942267995" pbc="T T T"
Si       3.19444061       5.03177691       2.31825534
Si       9.70152448       5.30900008       0.98859033
Si      13.05628792       9.94217877       2.56241507
Si       6.73265361       4.32703225       2.13742891
Si       8.35093197       5.86411923       2.95861372
Si       9.22559770      11.14680526       6.70290881
Si       8.33620897       2.46796331      -1.09506122
Si       7.82913793       8.19087334       3.73875337
Si       4.18474231       0.77589013      -1.35972659
Si       8.36609261       6.15930564      -0.81547992
Si       3.80779160       5.79493622       4.43100616
Si       6.77723118       7.83908780       6.17652103
12
Lattice="7.895717174660543 2.1853904551506007 -1.5320177698613435 4.980589396883095 7.4458638858052115 1.2520273555964296 1.7033278981893387 2.3181046995692802 5.284586008642298" Properties=species:S:1:pos:R:3 unique_starting_index=78 config_type=initial n_minim_iter=20 stress="7.126266121590623e-05 2.7350435746293415e-05 -4.899797356079253e-05 2.7350435746293415e-05 -4.737438796056463e-05 -0.000183032090718058 -4.899797356079253e-05 -0.000183032090718058 -0.00012907644897787695" pbc="T T T"
Si       3.19290380       5.03387851       2.32224455
Si       9.70192169       5.31247749       0.99243192
Si      13.05677943       9.94172591       2.56765437
Si       6.73157383       4.32847635       2.14091494
Si       8.34929763       5.86794965       2.96163019
Si       9.23032933      11.14198349       6.71621349
Si       8.33457636       2.47153858      -1.09583826
Si       7.82468043       8.19598173       3.75169027
Si       4.17928940       0.77597139      -1.36334278
Si       8.36851989       6.15692057      -0.81615181
Si       3.80964160       5.79439586       4.43465890
Si       6.77670298       7.84034858       6.19015018
12
Lattice="7.891109479929951 2.184169865632288 -1.5312355470548082 4.978233865917531 7.445671583266917 1.2600006747462182 1.7027544837764246 2.3224087556235724 5.292228537496258" Properties=species:S:1:pos:R:3 unique_starting_index=78 config_type=initial n_minim_iter=21 stress="1.398533740509873e-05 -3.657683499568834e-05 -3.258450449422724e-05 -3.657683499568834e-05 2.509772707071904e-05 7.946784685767118e-05 -3.258450449422724e-05 7.946784685767118e-05 -6.1110123732135365e-06" pbc="T T T"
Si       3.18973083       5.03699614       2.32976863
Si       9.69847817       5.31445355       0.99934202
Si      13.05232370       9.94203426       2.57786242
Si       6.72882991       4.32926271       2.14781582
Si       8.34443669       5.87196594       2.96869697
Si       9.23003767      11.14306715       6.73487294
Si       8.32947228       2.47288791      -1.09534253
Si       7.81572739       8.20174542       3.76656377
Si       4.17342044       0.77265905      -1.36643059
Si       8.36499166       6.15196647      -0.81343678
Si       3.80886251       5.79702011       4.44194086
Si       6.77347285       7.84374865       6.20883248
