12
Lattice="5.8460846983122465 0.4063722730218927 -2.093082377774014 1.7487604658530194 3.466364209740549 0.5797631872128041 -1.627494446761334 1.7290674359730551 12.951233748607855" Properties=species:S:1:pos:R:3 unique_starting_index=158 config_type=initial n_minim_iter=1 energy=-1954.9683360260747 free_energy=-1954.9683360260747 pbc="T T T"
Si       6.50047744       3.16363026       4.52087823
Si       0.83227233       3.51600729      12.21417741
Si       1.80903991       3.30738968       0.97434469
Si       5.87734558       3.67016737       0.43005483
Si       3.51403417       2.72245896       7.60706139
Si       1.32079327       2.33780408       8.83523792
Si       1.28407538       4.38142022      10.08731880
Si       2.61411225       0.78321742       3.62505925
Si       3.42118555       2.77619895       2.60830742
Si       0.85670373       0.77159502       5.33719206
Si       4.36857239       3.71507695       9.62435305
Si       5.12837612       1.68572931       1.42814651
12
Lattice="5.846785789491399 0.40476891600049153 -2.0934268503458657 1.748249997500017 3.4651654070072517 0.5802696603290532 -1.6284692559478762 1.7308224169012434 12.952852909787753" Properties=species:S:1:pos:R:3 unique_starting_index=158 config_type=initial n_minim_iter=2 stress="6.246580583283365e-05 -0.00010404668728429606 -1.948493250571618e-05 -0.00010404668728429606 -6.493100404482721e-05 8.951614040561147e-05 -1.948493250571618e-05 8.951614040561147e-05 -2.001764719148855e-05" pbc="T T T"
Si       6.50054240       3.16205235       4.52142411
Si       0.83126411       3.51665140      12.21576122
Si       1.80854055       3.30639263       0.97492772
Si       5.87715975       3.66814338       0.43031908
Si       3.51368886       2.72212203       7.60829099
Si       1.32032357       2.33832508       8.83637949
Si       1.28310246       4.38152141      10.08902525
Si       2.61412491       0.78281613       3.62522790
Si       3.42100969       2.77523842       2.60915035
Si       0.85631887       0.77188537       5.33773798
Si       4.36797262       3.71466857       9.62577773
Si       5.12864850       1.68425924       1.42849121
12
Lattice="5.846561367419621 0.405243991160276 -2.0938622659392356 1.7484050434181977 3.464530712142035 0.5801008203536984 -1.6280494404063293 1.7290946035766983 12.955817259550066" Properties=species:S:1:pos:R:3 unique_starting_index=158 config_type=initial n_minim_iter=3 stress="1.5359597719481423e-05 -3.4310120910088286e-05 -4.7414440859732716e-05 -3.4310120910088286e-05 -0.0001478570500506537 -4.867107789265406e-05 -4.7414440859732716e-05 -4.867107789265406e-05 0.00012214888734894783" pbc="T T T"
Si       6.50072394       3.16117261       4.52191666
Si       0.83168504       3.51474278      12.21809880
Si       1.80867598       3.30599855       0.97508348
Si       5.87681962       3.66802641       0.42981410
Si       3.51400038       2.72099405       7.61044433
Si       1.32095845       2.33743742       8.83818023
Si       1.28373533       4.37995328      10.09129483
Si       2.61408456       0.78189422       3.62555483
Si       3.42129028       2.77489449       2.61022437
Si       0.85602876       0.77095653       5.33874089
Si       4.36806717       3.71349160       9.62794134
Si       5.12859559       1.68357779       1.42916535
12
Lattice="5.846002083945064 0.40540083244814606 -2.092013288639361 1.748768600495149 3.4658656441313855 0.5810708154494993 -1.6251247674028517 1.7322767966923738 12.952598601723814" Properties=species:S:1:pos:R:3 unique_starting_index=158 config_type=initial n_minim_iter=4 stress="-5.9977562585556745e-05 -9.74900540664155e-06 4.589105709655624e-05 -9.74900540664155e-06 6.140468047285855e-05 0.00012217010276766688 4.589105709655624e-05 0.00012217010276766688 -5.877144891467673e-05" pbc="T T T"
Si       6.50199302       3.16334908       4.52226424
Si       0.83445921       3.51854973      12.21549771
Si       1.80916364       3.30772650       0.97630026
Si       5.87652929       3.67004935       0.43125079
Si       3.51593436       2.72373167       7.61062006
Si       1.32348229       2.34078800       8.83640188
Si       1.28659203       4.38395720      10.09032818
Si       2.61477335       0.78234282       3.62471160
Si       3.42215256       2.77687982       2.61166312
Si       0.85663652       0.77183719       5.33733707
Si       4.37007564       3.71746141       9.62742874
Si       5.12885584       1.68412572       1.43078897
12
Lattice="5.847168633127215 0.4056872148392883 -2.0924630192741533 1.7490036961360396 3.4656026789293826 0.5803520399966303 -1.6262595505166137 1.7299502958880077 12.95243065840879" Properties=species:S:1:pos:R:3 unique_starting_index=158 config_type=initial n_minim_iter=5 stress="0.00013404909119143208 -2.8365652399609023e-05 -2.659264068704935e-05 -2.8365652399609023e-05 8.715884239787764e-05 -6.43540679131883e-05 -2.659264068704935e-05 -6.43540679131883e-05 -1.9153955632986295e-05" pbc="T T T"
Si       6.50283203       3.16221407       4.52118021
Si       0.83366370       3.51634792      12.21490850
Si       1.80953148       3.30741051       0.97566264
Si       5.87738826       3.66967812       0.43029684
Si       3.51611604       2.72230101       7.61007872
Si       1.32317182       2.33932741       8.83585809
Si       1.28627791       4.38211651      10.08946209
Si       2.61502939       0.78156773       3.62443916
Si       3.42246446       2.77619329       2.61091165
Si       0.85642343       0.77068335       5.33711211
Si       4.37018322       3.71566361       9.62657061
Si       5.12956675       1.68372384       1.43011701
12
Lattice="5.846122502816775 0.4064108214586473 -2.092835652163602 1.7490395811021717 3.464244681521926 0.5799674971439615 -1.6260143100681803 1.7275106314766033 12.953536493623956" Properties=species:S:1:pos:R:3 unique_starting_index=158 config_type=initial n_minim_iter=6 stress="-0.000205985199020496 0.00010055505606589993 -5.991016340454254e-05 0.00010055505606589993 -0.00034994914626374467 -0.00017434558599780712 -5.991016340454254e-05 -0.00017434558599780712 -0.00011144116666997131" pbc="T T T"
Si       6.50181221       3.16067497       4.52077334
Si       0.83327045       3.51376921      12.21586499
Si       1.80994663       3.30611184       0.97551003
Si       5.87632496       3.66840852       0.42999853
Si       3.51581236       2.72077858       7.61078420
Si       1.32309067       2.33797509       8.83623883
Si       1.28674626       4.37962298      10.08977246
Si       2.61468159       0.78094501       3.62481925
Si       3.42172382       2.77474608       2.61051073
Si       0.85624580       0.76927930       5.33739971
Si       4.36956328       3.71371599       9.62718727
Si       5.12844632       1.68343847       1.42975509
12
Lattice="5.846519833538327 0.4064814105436521 -2.0931619644013932 1.7493395998993846 3.4647565771471776 0.5805463637899597 -1.625093757752795 1.7284822827627722 12.958566025848684" Properties=species:S:1:pos:R:3 unique_starting_index=158 config_type=initial n_minim_iter=7 stress="1.4894485835396729e-05 0.00011187637354310367 -3.157941092830918e-05 0.00011187637354310367 -7.157175859017512e-05 -0.00012837353500642324 -3.157941092830918e-05 -0.00012837353500642324 0.0003451280984577893" pbc="T T T"
Si       6.50288030       3.16110833       4.52282560
Si       0.83407566       3.51522215      12.22097908
Si       1.81062228       3.30675043       0.97648356
Si       5.87662906       3.66882269       0.43093088
Si       3.51707289       2.72180787       7.61464176
Si       1.32414662       2.33945892       8.83969080
Si       1.28827280       4.38130467      10.09403067
Si       2.61535130       0.78104060       3.62653364
Si       3.42205401       2.77508187       2.61189836
Si       0.85668825       0.76908290       5.33938447
Si       4.37079906       3.71523570       9.63175119
Si       5.12881652       1.68373922       1.43072502
12
Lattice="5.846841043641625 0.4055982380799183 -2.0916517000242347 1.7491351687340024 3.4653897292177076 0.5808742322705174 -1.6235796529170545 1.729997891602997 12.954723621876337" Properties=species:S:1:pos:R:3 unique_starting_index=158 config_type=initial n_minim_iter=8 stress="0.00012257361793156183 -5.000641375815997e-05 -1.1252158883859525e-05 -5.000641375815997e-05 0.00012019839222647572 -9.317285148307338e-05 -1.1252158883859525e-05 -9.317285148307338e-05 0.00014347116330512078" pbc="T T T"
Si       6.50400579       3.16037542       4.52180199
Si       0.83499631       3.51720226      12.21771336
Si       1.81097902       3.30775031       0.97726981
Si       5.87608998       3.66874733       0.43180367
Si       3.51878737       2.72274725       7.61424962
Si       1.32576597       2.34176516       8.83691531
Si       1.29031696       4.38379318      10.09176134
Si       2.61617838       0.78020076       3.62568175
Si       3.42212493       2.77516527       2.61214638
Si       0.85711621       0.76816681       5.33749856
Si       4.37204617       3.71689716       9.63037143
Si       5.12890291       1.68291015       1.43122752
12
Lattice="5.847537178566951 0.4059756304605381 -2.090612961830622 1.7499142584745526 3.4655467305911767 0.5815864119670111 -1.6222664725589373 1.7320648492661628 12.952594893229222" Properties=species:S:1:pos:R:3 unique_starting_index=158 config_type=initial n_minim_iter=9 stress="0.00011909169213467568 3.5459154436997073e-06 -1.7448659033740787e-05 3.5459154436997073e-06 6.539240135085465e-05 3.203341163258507e-05 -1.7448659033740787e-05 3.203341163258507e-05 -2.073042621286818e-05" pbc="T T T"
Si       6.50588813       3.16078344       4.52117350
Si       0.83633695       3.51988534      12.21627215
Si       1.81224828       3.30847607       0.97852058
Si       5.87662152       3.66920726       0.43286757
Si       3.52118519       2.72486856       7.61492437
Si       1.32765274       2.34507721       8.83523448
Si       1.29329860       4.38673273      10.09105981
Si       2.61714124       0.78014679       3.62526918
Si       3.42283086       2.77546425       2.61280080
Si       0.85756654       0.76758554       5.33621097
Si       4.37392051       3.71996736       9.63044866
Si       5.12936129       1.68316166       1.43165931
12
Lattice="5.84634435951933 0.40553112091396365 -2.089739875270324 1.7495070060422513 3.4653020912458095 0.581892351416296 -1.6201644745174928 1.732226723159644 12.952534681613798" Properties=species:S:1:pos:R:3 unique_starting_index=158 config_type=initial n_minim_iter=10 stress="-4.621299645103064e-05 -4.193857322948739e-05 6.0041042819583e-05 -4.193857322948739e-05 -8.227283206553575e-07 2.6840426088858533e-05 6.0041042819583e-05 2.6840426088858533e-05 -7.808233951346105e-05" pbc="T T T"
Si       6.50533903       3.15928678       4.52147851
Si       0.83758261       3.52021081      12.21669059
Si       1.81201903       3.30861672       0.97928530
Si       5.87510008       3.66848139       0.43370503
Si       3.52232704       2.72499605       7.61633657
Si       1.32890488       2.34622759       8.83511076
Si       1.29526673       4.38748734      10.09153071
Si       2.61730021       0.77919108       3.62570149
Si       3.42222474       2.77463038       2.61352126
Si       0.85811181       0.76626347       5.33602255
Si       4.37434750       3.72035277       9.63184214
Si       5.12814126       1.68234388       1.43216928
12
Lattice="5.845975011321801 0.40574306741361116 -2.0906603148648415 1.7495108008951328 3.4653288259244968 0.5821206768882364 -1.6217342193907927 1.7336937035251592 12.953668189351372" Properties=species:S:1:pos:R:3 unique_starting_index=158 config_type=initial n_minim_iter=11 stress="-0.00020200845035271768 2.3950499726945737e-05 -7.672687739042161e-05 2.3950499726945737e-05 -6.267961460656497e-05 8.879680299850792e-05 -7.672687739042161e-05 8.879680299850792e-05 -0.00010392587204723726" pbc="T T T"
Si       6.50373315       3.15832919       4.51995413
Si       0.83607577       3.52237417      12.21799916
Si       1.81150584       3.30948251       0.98012018
Si       5.87412087       3.66863357       0.43301449
Si       3.52247524       2.72715451       7.61751904
Si       1.32787725       2.34961440       8.83492682
Si       1.29549981       4.39025647      10.09279271
Si       2.61639485       0.77838351       3.62566191
Si       3.42118436       2.77397956       2.61378792
Si       0.85732780       0.76470148       5.33567413
Si       4.37238592       3.72321173       9.63336664
Si       5.12639112       1.68222141       1.43079846
12
Lattice="5.8465808547670015 0.40598328406170586 -2.0897033125445046 1.750016966132205 3.4649593405055192 0.5822936027363326 -1.61961574284008 1.7328322250010697 12.953769001279923" Properties=species:S:1:pos:R:3 unique_starting_index=158 config_type=initial n_minim_iter=12 stress="-3.551412911226409e-05 3.8688928883275005e-05 9.925349633316691e-05 3.8688928883275005e-05 -0.00012142660489239232 2.8800487243991914e-05 9.925349633316691e-05 2.8800487243991914e-05 -5.879228957280083e-05" pbc="T T T"
Si       6.50543709       3.15732875       4.52100945
Si       0.83900161       3.52160476      12.21862179
Si       1.81141602       3.30932784       0.98025320
Si       5.87544488       3.66835960       0.43371532
Si       3.52502793       2.72705473       7.61821714
Si       1.32966928       2.34942387       8.83534009
Si       1.29790361       4.38958208      10.09344952
Si       2.61730857       0.77782375       3.62629639
Si       3.42232308       2.77318933       2.61443391
Si       0.85861828       0.76392941       5.33594005
Si       4.37488219       3.72288443       9.63473766
Si       5.12734248       1.68209758       1.43128358
