10
Lattice="4.534289876122436 -3.9811888623927817e-20 -2.1973396468802253e-14 3.394055385055783e-20 3.865476396831082 1.9996166581209392e-10 5.1275125431041756e-14 -5.473406800738622e-10 10.580807681187526" Properties=species:S:1:pos:R:3 unique_starting_index=72 config_type=initial n_minim_iter=13 energy=-1629.3859931044994 free_energy=-1629.3859931044994 pbc="T T T"
Si       4.03051107       2.88180703       3.74038423
Si       4.03051107       0.98366937       6.84042345
Si       1.76336613       0.94906883       1.55001961
Si       1.76336613       2.91640757       9.03078807
Si       0.87858666       0.97922198       3.74189647
Si       0.87858666       2.88625441       6.83891121
Si       3.14573160       2.91196018       1.54850737
Si       3.14573160       0.95351622       9.03230031
Si       0.18751817       0.00000000       0.00000000
Si       2.45466311       1.93273820       5.29040384
