14
Lattice="5.62812272916203 0.29590408492710174 -5.194123528967363e-14 0.1482216300563306 2.5646595170650492 -1.47939212444466e-13 9.99701254960035e-14 9.223932828823225e-13 16.090774907046576" Properties=species:S:1:pos:R:3 unique_starting_index=0 config_type=initial n_minim_iter=1 energy=-2277.0142099011223 free_energy=-2277.0142099011223 pbc="T T T"
Si       1.69191495       0.75256806      12.46012143
Si       1.19625723       0.67771374       4.41473397
Si       4.08442941       2.10799554       3.63065348
Si       4.58008713       2.18284986      11.67604093
Si       4.74374258       0.92566015       5.64867222
Si       3.77255233       0.80052573      13.69405967
Si       1.03260178       1.93490345      10.44210269
Si       2.00379203       2.06003787       2.39671524
Si       2.43663131       0.77871793       6.41471733
Si       0.45154087       0.65156387      14.46010478
Si       3.33971305       2.08184567       9.67605758
Si       5.32480349       2.20899973       1.63067012
Si       2.81406136       0.14795204      -0.00000000
Si       0.07411082       1.28232976       8.04538745
14
Lattice="5.566286109373421 0.2974256443492602 -5.1644270641273994e-14 0.14620324307920443 2.5852624326830873 -1.491077212817972e-13 9.872727632800123e-14 9.109296309898184e-13 15.890796953512394" Properties=species:S:1:pos:R:3 unique_starting_index=0 config_type=initial n_minim_iter=2 stress="-0.012476389822731814 -0.0013911345337019147 1.2198781634236855e-16 -0.0013911345337019147 0.0005295757817454613 -3.322707063397299e-16 1.2198781634236855e-16 -3.322707063397299e-16 -0.006093692171336782" pbc="T T T"
Si       1.67488914       0.75891315      12.30897468
Si       1.18135554       0.68243089       4.36357620
Si       4.03760021       2.12377493       3.58182228
Si       4.53113382       2.20025719      11.52722075
Si       4.68961084       0.93321773       5.58360340
Si       3.73291994       0.80555195      13.52900188
Si       1.02287851       1.94947035      10.30719355
Si       1.97956941       2.07713612       2.36179507
Si       2.40786573       0.78692644       6.34814292
Si       0.44837895       0.65441760      14.29354139
Si       3.30462362       2.09576164       9.54265404
Si       5.26411040       2.22827048       1.59725556
Si       2.78314305       0.14871282      -0.00000000
Si       0.07310162       1.29263122       7.94539848
14
Lattice="5.615407607026943 0.3395051897366784 -5.43616327098172e-14 0.16215081453791672 2.6712554517012967 -1.5413630141664128e-13 9.611995100405674e-14 8.868804211938232e-13 15.471270527007745" Properties=species:S:1:pos:R:3 unique_starting_index=0 config_type=initial n_minim_iter=3 stress="-0.003789423727043477 -0.002216109192611758 4.135362450156372e-16 -0.002216109192611758 0.0231069553341643 -1.2289648988302158e-15 4.135362450156372e-16 -1.2289648988302158e-15 0.0017842134255158955" pbc="T T T"
Si       1.70230837       0.79671471      12.00303052
Si       1.18647084       0.70866561       4.26739525
Si       4.07525005       2.21404594       3.46824001
Si       4.59108758       2.30209503      11.20387527
Si       4.72338617       0.99571181       5.46563359
Si       3.78080064       0.84917370      13.20126885
Si       1.05417225       2.01504883      10.00563694
Si       1.99675778       2.16158694       2.27000167
Si       2.42144254       0.84035175       6.25562256
Si       0.46733667       0.66502857      13.99125782
Si       3.35611588       2.17040889       9.21564797
Si       5.31022175       2.34573207       1.48001271
Si       2.80770380       0.16975259      -0.00000000
Si       0.08107541       1.33562773       7.73563526
14
Lattice="5.668829820803241 0.40635128414972704 -5.852547903925053e-14 0.19392096438577172 2.6731124634232706 -1.5444018376204046e-13 9.155464231578064e-14 8.447721559283511e-13 14.73671689085219" Properties=species:S:1:pos:R:3 unique_starting_index=0 config_type=initial n_minim_iter=4 stress="-0.009654192025703388 -0.0018943822036321001 3.5250391908881807e-16 -0.0018943822036321001 0.011217198144309775 -1.986678416527862e-15 3.5250391908881807e-16 -1.986678416527862e-15 -0.023891626682421965" pbc="T T T"
Si       1.73977864       0.82192701      11.46047067
Si       1.19159675       0.71780486       4.09211222
Si       4.12297214       2.25753673       3.27624622
Si       4.67115403       2.36165889      10.64460467
Si       4.75790241       1.05817089       5.24892040
Si       3.84230281       0.88791227      12.61727885
Si       1.10484838       2.02129286       9.48779649
Si       2.02044798       2.19155148       2.11943805
Si       2.43508899       0.88933450       6.06583806
Si       0.49628641       0.65039737      13.43419651
Si       3.42766180       2.19012924       8.67087883
Si       5.36646438       2.42906638       1.30252038
Si       2.83441491       0.20317564      -0.00000000
Si       0.09696048       1.33655623       7.36835845
14
Lattice="5.635301086007988 0.4888133762979411 -6.304432439102052e-14 0.23177242249792204 2.651094700353149 -1.5341333713280073e-13 9.11019772688027e-14 8.40597560769835e-13 14.663908289799247" Properties=species:S:1:pos:R:3 unique_starting_index=0 config_type=initial n_minim_iter=5 stress="-0.015805052184169093 -0.0014614419068351696 2.717859592457852e-16 -0.0014614419068351696 0.004761916005491174 -1.2962872936296641e-15 2.717859592457852e-16 -1.2962872936296641e-15 -0.021164094926277775" pbc="T T T"
Si       1.75944810       0.84839074      11.44157824
Si       1.17408865       0.72156330       4.10962409
Si       4.10762541       2.29151734       3.22233005
Si       4.69298485       2.41834478      10.55428420
Si       4.71135609       1.12520428       5.27884561
Si       3.85748175       0.93356313      12.61079975
Si       1.15571742       2.01470379       9.38506268
Si       2.00959175       2.20634494       2.05310854
Si       2.41026900       0.94456536       6.17831413
Si       0.52326775       0.62538867      13.51026827
Si       3.45680451       2.19534271       8.48559416
Si       5.34380576       2.51451940       1.15364002
Si       2.81765054       0.24440669      -0.00000000
Si       0.11588621       1.32554735       7.33195414
14
Lattice="5.663012210328628 0.5280860808230322 -6.546782077549734e-14 0.2523689089397254 2.613612791145209 -1.513927748174842e-13 9.239369425644716e-14 8.525123091404398e-13 14.871765643530944" Properties=species:S:1:pos:R:3 unique_starting_index=0 config_type=initial n_minim_iter=6 stress="-0.004859704525296469 0.0008431061225511529 2.479927854264954e-16 0.0008431061225511529 0.0004078330382421647 -2.922726670726834e-16 2.479927854264954e-16 -2.922726670726834e-16 -0.009279799015034692" pbc="T T T"
Si       1.77989020       0.85668334      11.62500882
Si       1.17780036       0.71416610       4.18912600
Si       4.13549092       2.28501553       3.24675683
Si       4.73758076       2.42753278      10.68263965
Si       4.71742868       1.14691093       5.37814204
Si       3.90327409       0.95202459      12.81402486
Si       1.19795244       1.99478794       9.49362361
Si       2.01210703       2.18967428       2.05774079
Si       2.41645898       0.96360666       6.33799009
Si       0.54123158       0.60724278      13.77387291
Si       3.49892214       2.17809221       8.53377555
Si       5.37414954       2.53445610       1.09789273
Si       2.83150611       0.26404304      -0.00000000
Si       0.12618445       1.30680640       7.43588282
14
Lattice="5.659439584009706 0.5022391212071047 -6.396399763015377e-14 0.24207829945525694 2.58353081938573 -1.4960445894610704e-13 9.421823864063245e-14 8.693415719644424e-13 15.165348322100112" Properties=species:S:1:pos:R:3 unique_starting_index=0 config_type=initial n_minim_iter=7 stress="0.0023329884183964874 0.0006210384194907596 1.4616578799289325e-16 0.0006210384194907596 -0.0007210722361227813 4.190590812922328e-16 1.4616578799289325e-16 4.190590812922328e-16 0.003840618651677779" pbc="T T T"
Si       1.77394614       0.84589540      11.86133621
Si       1.17681280       0.69698957       4.27866205
Si       4.12757174       2.23987454       3.30401211
Si       4.72470508       2.38878037      10.88668627
Si       4.69857511       1.11509160       5.48404949
Si       3.91162342       0.93003249      13.06672365
Si       1.20294277       1.97067834       9.68129884
Si       1.98989447       2.15573745       2.09862467
Si       2.40916280       0.94694393       6.47543185
Si       0.54159614       0.59594104      14.05810601
Si       3.49235508       2.13882601       8.68991648
Si       5.35992174       2.48982890       1.10724232
Si       2.82971979       0.25111956      -0.00000000
Si       0.12103915       1.29176541       7.58267416
14
Lattice="5.661447434720164 0.49588520079907833 -6.361226629556059e-14 0.23949851961788898 2.578533531154929 -1.4930200236714284e-13 9.423113361144663e-14 8.694609039380188e-13 15.167433982046564" Properties=species:S:1:pos:R:3 unique_starting_index=0 config_type=initial n_minim_iter=8 stress="0.002674458907988335 0.00036100120442456317 6.116892852294184e-17 0.00036100120442456317 -0.0024496657637845735 4.484036330566067e-16 6.116892852294184e-17 4.484036330566067e-16 0.0032262468879871056" pbc="T T T"
Si       1.77347797       0.84964038      11.87476443
Si       1.17699500       0.68756899       4.29104744
Si       4.12746798       2.22477836       3.29266956
Si       4.72395095       2.38684974      10.87638655
Si       4.68260666       1.10729592       5.49108960
Si       3.92931375       0.92579865      13.07480659
Si       1.21833929       1.96712281       9.67634438
Si       1.97163221       2.14862009       2.09262739
Si       2.40308167       0.94844690       6.50546827
Si       0.54739131       0.58876246      14.08918526
Si       3.49786429       2.12597183       8.66196571
Si       5.35355465       2.48565627       1.07824872
Si       2.83072372       0.24794260      -0.00000000
Si       0.11974926       1.28926677       7.58371699
14
Lattice="5.650508472367986 0.44510860944573016 -6.063361679055282e-14 0.21565232503886805 2.586520073906537 -1.4961172443515564e-13 9.431151721843598e-14 8.70202924096095e-13 15.180383808685386" Properties=species:S:1:pos:R:3 unique_starting_index=0 config_type=initial n_minim_iter=9 stress="0.003463959533692199 -0.0018333251275231466 3.7451292748869973e-16 -0.0018333251275231466 0.0025977962176955377 2.842218148426346e-16 3.7451292748869973e-16 2.842218148426346e-16 0.007550882468509072" pbc="T T T"
Si       1.74969813       0.87084405      11.91973623
Si       1.18338227       0.64497029       4.32954432
Si       4.11646267       2.16078463       3.26064758
Si       4.68277853       2.38665839      10.85083948
Si       4.59968776       1.05988517       5.48512879
Si       3.98390111       0.90103778      13.07532070
Si       1.26647304       1.97174351       9.69525501
Si       1.88225969       2.13059091       2.10506311
Si       2.37370609       0.94093158       6.55618943
Si       0.55937431       0.57488276      14.14638134
Si       3.49245471       2.09069710       8.62419437
Si       5.30678648       2.45674592       1.03400247
Si       2.82525424       0.22255430      -0.00000000
Si       0.10782616       1.29326004       7.59019190
14
Lattice="5.661297101058555 0.46167687680561176 -6.165045675310885e-14 0.22306090024687236 2.5946129063465277 -1.5012172644126239e-13 9.28060742277595e-14 8.563181101503077e-13 14.938176850380598" Properties=species:S:1:pos:R:3 unique_starting_index=0 config_type=initial n_minim_iter=10 stress="-0.00025483147977393636 -0.0007675453726654769 2.104406707605297e-16 -0.0007675453726654769 -0.0016924308622373312 4.8087986205871646e-17 2.104406707605297e-16 4.8087986205871646e-17 -0.0017535369035909549" pbc="T T T"
Si       1.74187696       0.89898004      11.73287610
Si       1.20030204       0.62916485       4.26378768
Si       4.14248105       2.15730975       3.20530075
Si       4.68405596       2.42712493      10.67438917
Si       4.58905837       1.06870451       5.35845556
Si       4.01441773       0.92111726      12.82754399
Si       1.29529963       1.98758527       9.57972129
Si       1.86994027       2.13517252       2.11063286
Si       2.37827342       0.94271833       6.40276789
Si       0.56390558       0.58542656      13.87185632
Si       3.50608458       2.11357145       8.53540896
Si       5.32045242       2.47086323       1.06632053
Si       2.83064855       0.23083844      -0.00000000
Si       0.11153045       1.29730645       7.46908843
14
Lattice="5.654641047793374 0.5260604597616156 -6.529990460251088e-14 0.25139564017908045 2.6103747836112965 -1.512013846875299e-13 9.284229067137568e-14 8.566531241871145e-13 14.944029853903494" Properties=species:S:1:pos:R:3 unique_starting_index=0 config_type=initial n_minim_iter=11 stress="-0.0011982116367004602 0.002599159414407961 -6.221273551682127e-17 0.002599159414407961 0.0027675891173950078 -1.9203420912080036e-16 -6.221273551682127e-17 -1.9203420912080036e-16 0.0008900175202607835" pbc="T T T"
Si       1.76218292       0.92977422      11.74889970
Si       1.19083542       0.63844340       4.27688477
Si       4.14385376       2.20666103       3.19513016
Si       4.71520127       2.49799184      10.66714508
Si       4.59911572       1.12335605       5.36460056
Si       4.00854367       0.97092204      12.83661549
Si       1.30692097       2.01307920       9.57942929
Si       1.89749301       2.16551321       2.10741437
Si       2.37662675       0.97600255       6.42662149
Si       0.57639160       0.59221507      13.89863642
Si       3.52940994       2.16043269       8.51740836
Si       5.32964509       2.54422018       1.04539344
Si       2.82732052       0.26303023      -0.00000000
Si       0.12569782       1.30518739       7.47201493
14
Lattice="5.694873725211889 0.47657788034644366 -6.271344836354902e-14 0.22996748054365737 2.6092179800157993 -1.5100207294015177e-13 9.198800833876272e-14 8.487758679891477e-13 14.806629401804358" Properties=species:S:1:pos:R:3 unique_starting_index=0 config_type=initial n_minim_iter=12 stress="0.0005345414401821865 0.00042424336427972215 5.870331808319947e-16 0.00042424336427972215 0.0011148280554070214 -3.047323683351191e-16 5.870331808319947e-16 -3.047323683351191e-16 -0.001855182870609739" pbc="T T T"
Si       1.80006724       0.99002203      11.69966100
Si       1.16235336       0.55287590       4.29634630
Si       4.12477397       2.09577383       3.10696840
Si       4.76248784       2.53291996      10.51028310
Si       4.60605703       1.06176218       5.26203318
Si       4.05123730       0.95771363      12.66534788
Si       1.31878417       2.02403368       9.54459622
Si       1.87360391       2.12808223       2.14128152
Si       2.35256917       0.95361807       6.37765253
Si       0.60985143       0.58927987      13.78096723
Si       3.57227204       2.13217780       8.42897688
Si       5.31498977       2.49651600       1.02566218
Si       2.84743686       0.23828894      -0.00000000
Si       0.11498374       1.30460899       7.40331470
14
Lattice="5.69692529745398 0.46022273344187153 -6.178871883869843e-14 0.22289836418661055 2.602947565275888 -1.5059875877223981e-13 9.212917607454704e-14 8.500792829090733e-13 14.829372126597896" Properties=species:S:1:pos:R:3 unique_starting_index=0 config_type=initial n_minim_iter=13 stress="-0.0013115732925709426 -0.0004112046966451071 8.698539519609023e-16 -0.0004112046966451071 -2.103931477899259e-05 -7.511450695629651e-17 8.698539519609023e-16 -7.511450695629651e-17 -0.0005712494561722739" pbc="T T T"
Si       1.81464792       1.01271609      11.73892671
Si       1.14526391       0.51886906       4.32424064
Si       4.10517574       2.05045421       3.09044542
Si       4.77455975       2.54430124      10.50513148
Si       4.60296871       1.03820050       5.24987487
Si       4.05386842       0.95360739      12.66456093
Si       1.31685496       2.02496980       9.57949726
Si       1.86595524       2.10956291       2.16481119
Si       2.34238081       0.94287598       6.38797146
Si       0.61753102       0.58870917      13.80265753
Si       3.57744285       2.12029432       8.44140066
Si       5.30229264       2.47446113       1.02671460
Si       2.84846265       0.23011137      -0.00000000
Si       0.11144918       1.30147378       7.41468606
14
Lattice="5.731765880928137 0.4534659779457261 -6.161798873853802e-14 0.22099112597520237 2.5981133012070665 -1.5030987194915822e-13 9.193571120783239e-14 8.482977383188253e-13 14.798302720811744" Properties=species:S:1:pos:R:3 unique_starting_index=0 config_type=initial n_minim_iter=14 stress="0.0023814355081844957 -0.0007617905348841706 6.515058182198254e-16 -0.0007617905348841706 -0.0012930207675238626 1.9007536424903042e-16 6.515058182198254e-16 1.9007536424903042e-16 9.257449160579107e-05" pbc="T T T"
Si       1.84937958       1.06703391      11.75182700
Si       1.12699893       0.45875573       4.35267563
Si       4.10337743       1.98454537       3.04647573
Si       4.82575808       2.59282355      10.44562709
Si       4.60869997       1.01445780       5.20530862
Si       4.09944441       0.96479782      12.60445998
Si       1.34405704       2.03712148       9.59299411
Si       1.85331259       2.08678146       2.19384274
Si       2.34912293       0.93423512       6.37840867
Si       0.62725557       0.59155452      13.77756003
Si       3.60363407       2.11734415       8.41989405
Si       5.32550144       2.46002476       1.02074269
Si       2.86588294       0.22673299      -0.00000000
Si       0.11049556       1.29905665       7.39915136
14
Lattice="5.712594652776481 0.4880341775482097 -6.348061921715343e-14 0.23628971734156085 2.597139072068292 -1.503491598733676e-13 9.247612379084772e-14 8.532853363944349e-13 14.88531771374044" Properties=species:S:1:pos:R:3 unique_starting_index=0 config_type=initial n_minim_iter=15 stress="-0.00207190390013735 0.0018575480291468211 5.235645605727071e-16 0.0018575480291468211 -0.000704380772618281 6.083659330907735e-16 5.235645605727071e-16 6.083659330907735e-16 0.006174684172607625" pbc="T T T"
Si       1.87030534       1.10406646      11.82538986
Si       1.10413684       0.43852016       4.38273100
Si       4.07857903       1.98110679       3.05992786
Si       4.84474753       2.64665309      10.50258671
Si       4.59209531       1.03252562       5.23937734
Si       4.09494153       0.99809518      12.68203620
Si       1.35678906       2.05264763       9.64594037
Si       1.85394284       2.08707807       2.20328152
Si       2.37419281       0.93917597       6.41667489
Si       0.60024938       0.60341065      13.85933374
Si       3.57469156       2.14599728       8.46864283
Si       5.34863499       2.48176260       1.02598397
Si       2.85629733       0.24401709      -0.00000000
Si       0.11814486       1.29856954       7.44265886
14
Lattice="5.727290778852478 0.47703262969678484 -6.294136641443049e-14 0.231153400184149 2.606841143945081 -1.5087347009270084e-13 9.179217496469042e-14 8.46978985504727e-13 14.775313329490114" Properties=species:S:1:pos:R:3 unique_starting_index=0 config_type=initial n_minim_iter=16 stress="-6.064325691285065e-05 0.0008934306894637639 2.9813054648768806e-16 0.0008934306894637639 -9.312085008543502e-05 2.2999909719468963e-16 2.9813054648768806e-16 2.2999909719468963e-16 0.00210223651021234" pbc="T T T"
Si       1.87567596       1.11749878      11.73822499
Si       1.10354613       0.42443811       4.35056832
Si       4.08276822       1.96637499       3.03708834
Si       4.85489805       2.65943567      10.42474501
Si       4.58873641       1.02155016       5.20550834
Si       4.11777646       0.99741936      12.59316500
Si       1.36970777       2.06232362       9.56980499
Si       1.84066772       2.08645441       2.18214833
Si       2.39476820       0.93289765       6.36937438
Si       0.58445389       0.60903924      13.75703104
Si       3.56367598       2.15097612       8.40593895
Si       5.37399029       2.47483454       1.01828229
Si       2.86364539       0.23851631      -0.00000000
Si       0.11557670       1.30342057       7.38765666
14
Lattice="5.74096724019783 0.4651633190729004 -6.234605159629714e-14 0.2257761719030123 2.61309353363695 -1.5119853782319459e-13 9.131596499128507e-14 8.425891190625287e-13 14.698741310015372" Properties=species:S:1:pos:R:3 unique_starting_index=0 config_type=initial n_minim_iter=17 stress="0.0001358993904978528 -1.75600950656844e-05 3.653847827294415e-16 -1.75600950656844e-05 0.0005424486268197856 -1.1877382182740214e-16 3.653847827294415e-16 -1.1877382182740214e-16 -0.0001005682652560387" pbc="T T T"
Si       1.88440259       1.12452291      11.67845441
Si       1.09896912       0.41460551       4.32908376
Si       4.08234082       1.95373394       3.02028690
Si       4.86777430       2.66365134      10.36965755
Si       4.60155829       1.01031457       5.18062896
Si       4.12278066       0.99397718      12.52999961
Si       1.36518512       2.06794229       9.51811235
Si       1.84396276       2.08427967       2.16874170
Si       2.40408482       0.92486912       6.33204355
Si       0.57928688       0.61425931      13.68141420
Si       3.56265859       2.15338774       8.36669776
Si       5.38745653       2.46399754       1.01732711
Si       2.87048362       0.23258166      -0.00000000
Si       0.11288809       1.30654677       7.34937066
14
Lattice="5.763375403240332 0.4437556276068234 -6.125831685624767e-14 0.21627246236243208 2.6195347372889533 -1.5150883941413197e-13 9.062688882373003e-14 8.362384195796024e-13 14.587968629640761" Properties=species:S:1:pos:R:3 unique_starting_index=0 config_type=initial n_minim_iter=18 stress="-2.5404256867070863e-05 -0.0018920624701461218 4.88804986524151e-16 -0.0018920624701461218 0.000855501610071265 -8.440573911048846e-17 4.88804986524151e-16 -8.440573911048846e-17 -0.0034305854496052422" pbc="T T T"
Si       1.89671163       1.13391965      11.58818180
Si       1.09311230       0.39772553       4.29419749
Si       4.08293623       1.92937071       2.99978683
Si       4.88653557       2.66556484      10.29377114
Si       4.62813987       0.98755716       5.15771658
Si       4.12505947       0.98784365      12.45170090
Si       1.35150800       2.07573320       9.43025205
Si       1.85458840       2.07544672       2.13626773
Si       2.42003742       0.90283290       6.27276829
Si       0.56978651       0.62881228      13.56675260
Si       3.55961045       2.16045747       8.31520034
Si       5.40986135       2.43447808       1.02121603
Si       2.88168770       0.22187781      -0.00000000
Si       0.10813623       1.30976737       7.29398431
14
Lattice="5.774767499606238 0.5213510056823459 -6.577754518667514e-14 0.2524218303827147 2.6102114464464656 -1.5119916193534152e-13 9.097023462844806e-14 8.394136223546873e-13 14.643377389602982" Properties=species:S:1:pos:R:3 unique_starting_index=0 config_type=initial n_minim_iter=19 stress="0.0012178180538642595 0.0011223756684927767 2.8275948596005065e-16 0.0011223756684927767 -0.0008820628309112301 -2.797149692875333e-17 2.8275948596005065e-16 -2.797149692875333e-17 -0.0007311638598616157" pbc="T T T"
Si       1.92797537       1.24246279      11.66194298
Si       1.08561930       0.32331844       4.34025429
Si       4.09921396       1.88909967       2.98143441
Si       4.94157003       2.80824401      10.30312310
Si       4.62833837       1.01250645       5.19936672
Si       4.16002379       1.07462579      12.52105541
Si       1.39885096       2.11905601       9.44401067
Si       1.86716554       2.05693667       2.12232198
Si       2.42199495       0.88672856       6.28057798
Si       0.59159972       0.67905266      13.60226668
Si       3.60519438       2.24483389       8.36279941
Si       5.43558961       2.45250979       1.04111071
Si       2.88738375       0.26067550      -0.00000000
Si       0.12621092       1.30510572       7.32168869
14
Lattice="5.748465700151846 0.5189146981148721 -6.547476528861976e-14 0.2509097894131817 2.6046797795542997 -1.5087282037826018e-13 9.158943371258001e-14 8.451307574183653e-13 14.743124657790613" Properties=species:S:1:pos:R:3 unique_starting_index=0 config_type=initial n_minim_iter=20 stress="-0.0001622662988755565 -0.001022560598947894 4.710425254726281e-16 -0.001022560598947894 -0.0014071075928712659 1.6742541464123028e-16 4.710425254726281e-16 1.6742541464123028e-16 0.001340174157966853" pbc="T T T"
Si       1.91281140       1.28127595      11.74034343
Si       1.08687634       0.28052129       4.36878110
Si       4.08656409       1.84231853       3.00278123
Si       4.91249915       2.84307319      10.37434356
Si       4.60910164       0.99319723       5.26340276
Si       4.13905181       1.08751471      12.63496509
Si       1.39027385       2.13039725       9.47972190
Si       1.86032368       2.03607977       2.10815957
Si       2.39030186       0.85197816       6.31177739
Si       0.60938588       0.70981908      13.68333972
Si       3.60907363       2.27161631       8.43134727
Si       5.38998961       2.41377540       1.05978494
Si       2.87423285       0.25945735      -0.00000000
Si       0.12545489       1.30233989       7.37156233
14
Lattice="5.716108178220516 0.594065038786025 -6.958204191983802e-14 0.28266348934596497 2.635856204318626 -1.5285750027316545e-13 9.126163827854151e-14 8.42115602877901e-13 14.690554307364204" Properties=species:S:1:pos:R:3 unique_starting_index=0 config_type=initial n_minim_iter=21 stress="-0.007852892624641726 0.002215552785377286 7.401330450050861e-16 0.002215552785377286 0.0031485319311000885 -3.7726305300953155e-16 7.401330450050861e-16 -3.7726305300953155e-16 -0.0017899614155566775" pbc="T T T"
Si       1.93188100       1.42270953      11.68142186
Si       1.06750484       0.19225109       4.33614471
Si       4.06689067       1.80721171       3.00913245
Si       4.93126683       3.03767015      10.35440960
Si       4.60016028       1.03071174       5.27148398
Si       4.11533373       1.17831392      12.61676113
Si       1.39861139       2.19920950       9.41907033
Si       1.88343794       2.05160732       2.07379317
Si       2.36824179       0.83339256       6.27851745
Si       0.63114405       0.78156806      13.62379460
Si       3.63052988       2.39652868       8.41203686
Si       5.36762762       2.44835318       1.06675971
Si       2.85805409       0.29703252      -0.00000000
Si       0.14133174       1.31792810       7.34527715
