6
Lattice="3.6409330733029623 5.280506442510671e-32 7.771681255552779e-32 -4.340004622601661e-32 4.980990221253125 -1.5939881468346024e-15 -2.722974047023628e-32 3.4680882927549725e-16 5.657408008632366" Properties=species:S:1:pos:R:3 unique_starting_index=136 config_type=initial n_minim_iter=12 energy=-975.7310711097996 free_energy=-975.7310711097996 pbc="T T T"
Si       1.82046654       0.00000000       5.14409048
Si      -0.00000000       2.49049511       0.96982309
Si       1.82046654      -0.00000000       1.85888091
Si      -0.00000000       2.49049511       3.34202153
Si       1.82046654       2.49049511      -0.65647250
Si      -0.00000000      -0.00000000       3.48517650
