14
Lattice="5.747066688492512 -0.4195966070964428 0.7619125021068371 2.078928584984355 7.502332766154236 -1.1259455660471185 1.3431802349484803 0.7476320229423297 6.797521888255201" Properties=species:S:1:pos:R:3 unique_starting_index=86 config_type=initial n_minim_iter=1 energy=-2280.8049551299077 free_energy=-2280.8049551299077 pbc="T T T"
Si       6.62695356       4.30206507       5.09421408
Si       6.85240134       1.06508214       3.99371205
Si       4.17581261       3.48454027       2.31872157
Si       7.58983677       3.22489348       3.18216156
Si       2.97937078       5.09713488       5.47103604
Si       2.33460581       2.04193156      -0.68730295
Si       1.36967852       5.33458609       0.79324169
Si       7.22581742       1.32000194       6.33891312
Si       4.49046335       2.34746024       0.26098366
Si       4.98546446       5.96779660       4.52225655
Si       3.01217724       0.51144279       6.76841794
Si       4.95807959       5.67380458       2.15276065
Si       5.01784807       2.42677512       4.22795967
Si       3.22309610       6.83934733       1.06703942
14
Lattice="5.784312486801723 -0.3963148295111164 0.7647109711913556 2.123987846172651 7.515631317612766 -1.1317605095595649 1.3543478053178744 0.753537123414971 6.830010744713579" Properties=species:S:1:pos:R:3 unique_starting_index=86 config_type=initial n_minim_iter=2 stress="0.0018438995427808352 -0.0014518016110617027 -0.00016826406765248903 -0.0014518016110617027 0.0037602827566512245 -0.00010456841947354236 -0.00016826406765248903 -0.00010456841947354236 0.002393679288871011" pbc="T T T"
Si       6.68845078       4.33296234       5.11906537
Si       6.90228817       1.09337005       4.01202744
Si       4.21900984       3.50353677       2.32851531
Si       7.65389191       3.25811423       3.19657281
Si       3.02025014       5.11169537       5.49758529
Si       2.35881619       2.05275607      -0.69164207
Si       1.40057693       5.34414207       0.79726097
Si       7.27803001       1.35086427       6.36864536
Si       4.53096178       2.36713535       0.26132130
Si       5.04380195       5.99166362       4.54240965
Si       3.03404711       0.52353899       6.79973464
Si       5.01573712       5.69746965       2.16345388
Si       5.06050680       2.44860242       4.24600479
Si       3.27272957       6.85781114       1.07168417
14
Lattice="5.78800409861302 -0.36997326194093505 0.7648869967564836 2.1572333542303177 7.486641336834407 -1.1293043769610411 1.3598416763551406 0.7564133696766326 6.824081004825823" Properties=species:S:1:pos:R:3 unique_starting_index=86 config_type=initial n_minim_iter=3 stress="3.514487915389189e-05 0.0018444793826584444 -0.0004263196305336076 0.0018444793826584444 -0.001420650325151554 -4.944785768292846e-05 -0.0004263196305336076 -4.944785768292846e-05 -0.0004606158417575092" pbc="T T T"
Si       6.71281463       4.34142992       5.11872355
Si       6.91302727       1.11694296       4.01017016
Si       4.23912491       3.50348389       2.32636206
Si       7.67482784       3.27443323       3.19606289
Si       3.04645659       5.09821668       5.49503507
Si       2.36976362       2.05191814      -0.69169736
Si       1.42435244       5.32440218       0.79831970
Si       7.28912461       1.37629929       6.36447323
Si       4.54536689       2.37420305       0.26143742
Si       5.07485316       5.98260323       4.53865751
Si       3.04047944       0.53383607       6.79287404
Si       5.04616221       5.68957352       2.16532071
Si       5.07450601       2.45803390       4.24081636
Si       3.30420957       6.83861886       1.07192999
14
Lattice="5.811105920351936 -0.3863066823476254 0.7959084685529898 2.132629379958606 7.443186932335945 -1.1112876702278114 1.397583037681245 0.7560306761847961 6.84065109439935" Properties=species:S:1:pos:R:3 unique_starting_index=86 config_type=initial n_minim_iter=4 stress="0.0036511821394254957 -0.00171257118856826 0.002970741443862019 -0.00171257118856826 -0.0037546570984573952 -0.00035353464161567874 0.002970741443862019 -0.00035353464161567874 -0.0011191149499410328" pbc="T T T"
Si       6.74190674       4.31651247       5.19136405
Si       6.94809889       1.08965167       4.05839167
Si       4.26168727       3.47176663       2.34358708
Si       7.70562514       3.23776014       3.25173249
Si       3.07844913       5.06162693       5.53369737
Si       2.37232671       2.02823481      -0.68973633
Si       1.41656720       5.30792656       0.81915676
Si       7.32133725       1.35871934       6.41286692
Si       4.55311233       2.34987473       0.28072017
Si       5.09548461       5.93579656       4.56613680
Si       3.08885830       0.52265905       6.80894003
Si       5.06873829       5.64373705       2.22119666
Si       5.08709398       2.43403321       4.25441862
Si       3.29122620       6.80716419       1.09356326
14
Lattice="5.766694622642365 -0.3750536388628242 0.7760640246818956 2.1381861614656223 7.485332164918159 -1.111039968766383 1.3643459015457924 0.7730267601441483 6.856420954893662" Properties=species:S:1:pos:R:3 unique_starting_index=86 config_type=initial n_minim_iter=5 stress="-0.0013749178354515836 0.0002702631182034842 0.0002345423675986847 0.0002702631182034842 -0.0002445779430031128 0.0016229132143835878 0.0002345423675986847 0.0016229132143835878 0.0013164019153563136" pbc="T T T"
Si       6.68371150       4.36941750       5.20551399
Si       6.88330244       1.11422251       4.05045628
Si       4.23587179       3.49909761       2.33120616
Si       7.64850313       3.27663578       3.24360434
Si       3.05453883       5.09734030       5.55329086
Si       2.36714763       2.03822693      -0.70535891
Si       1.41717013       5.34819365       0.82904429
Si       7.23758301       1.39260683       6.40719984
Si       4.52426476       2.37351152       0.26336124
Si       5.05692051       5.97963579       4.56285061
Si       3.04571955       0.53891051       6.81078416
Si       5.04603030       5.68601486       2.22927310
Si       5.03033524       2.46207646       4.23665328
Si       3.27728005       6.85727908       1.09251442
14
Lattice="5.773619634084168 -0.37929298720072147 0.7573204577772537 2.1474831843447526 7.517642053800021 -1.1585226551600212 1.3456859040864237 0.7340754788762354 6.816545882692258" Properties=species:S:1:pos:R:3 unique_starting_index=86 config_type=initial n_minim_iter=6 stress="0.0009553071683070403 0.0006005270503075848 -0.0005404141596280814 0.0006005270503075848 0.0021897199289946617 -0.0026967115837044702 -0.0005404141596280814 -0.0026967115837044702 -0.003331369190515867" pbc="T T T"
Si       6.68224821       4.35883672       5.14522797
Si       6.87843587       1.09579272       4.00801527
Si       4.23904832       3.49624957       2.27749096
Si       7.65223080       3.27227457       3.19241158
Si       3.04796717       5.07855809       5.49453725
Si       2.37655848       2.04520676      -0.72843203
Si       1.42284612       5.36504612       0.79059737
Si       7.22374720       1.35814426       6.34863643
Si       4.52888415       2.38327803       0.23201006
Si       5.05292423       5.97139616       4.48916701
Si       3.02990672       0.49863717       6.76158994
Si       5.05025483       5.69405622       2.17271121
Si       5.01976426       2.44260412       4.17737800
Si       3.28446592       6.87719098       1.03401307
14
Lattice="5.773576329715453 -0.39646100217801333 0.7500493575819638 2.121380240028612 7.448375739684754 -1.158196992564109 1.327466090679931 0.736384370057267 6.873455697685588" Properties=species:S:1:pos:R:3 unique_starting_index=86 config_type=initial n_minim_iter=7 stress="1.9295613634372286e-05 -0.0018967523982593437 -0.0028903733955860968 -0.0018967523982593437 -0.0026330607546803993 -0.0006174830491210224 -0.0028903733955860968 -0.0006174830491210224 0.00409683295598626" pbc="T T T"
Si       6.66232122       4.31727363       5.20262585
Si       6.85488462       1.07492824       4.03553762
Si       4.22303855       3.45837283       2.27406128
Si       7.63170547       3.23085266       3.22640148
Si       3.02471846       5.03326263       5.56007743
Si       2.37401819       2.00719242      -0.75129857
Si       1.41339452       5.32444303       0.81220518
Si       7.19516517       1.32334418       6.39444637
Si       4.51205010       2.35334326       0.22462062
Si       5.01808061       5.91090872       4.53507538
Si       3.01008483       0.49620085       6.80110998
Si       5.01834539       5.63884698       2.18930418
Si       4.99040024       2.40249111       4.18666572
Si       3.26924307       6.81612079       1.04667329
14
Lattice="5.780250721976037 -0.378496460061875 0.8012886921679431 2.128369066966089 7.470425249012715 -1.0793880730718084 1.3950051059241315 0.7938326718477552 6.88218395050841" Properties=species:S:1:pos:R:3 unique_starting_index=86 config_type=initial n_minim_iter=8 stress="-0.000628374512078144 -0.0005236558752447461 0.0007306140032242983 -0.0005236558752447461 0.000336220091908368 0.0031681563688830644 0.0007306140032242983 0.0031681563688830644 0.002564167945132955" pbc="T T T"
Si       6.73563701       4.39826864       5.31933523
Si       6.88149105       1.13389074       4.11328830
Si       4.25458251       3.49796205       2.30989237
Si       7.66998839       3.29581659       3.34544369
Si       3.10316118       5.09368899       5.64197143
Si       2.37729302       1.99621338      -0.73704729
Si       1.45072810       5.35960244       0.87752730
Si       7.24555527       1.37919703       6.47143147
Si       4.51027631       2.38022349       0.27815555
Si       5.07307921       5.97092046       4.63110096
Si       3.07177841       0.55708337       6.80963395
Si       5.04800265       5.69399161       2.27377908
Si       5.01919281       2.43907270       4.21812253
Si       3.31742141       6.86129055       1.12260230
14
Lattice="5.779257406246439 -0.3773512473149049 0.8050522576470457 2.1329202193817287 7.474204539059638 -1.1086313711036233 1.3977977539394433 0.7673490368364688 6.879484082242212" Properties=species:S:1:pos:R:3 unique_starting_index=86 config_type=initial n_minim_iter=9 stress="-0.000883350031145295 0.00020832321892508526 0.0010707456325939875 0.00020832321892508526 0.0002436410911414254 7.416268199546832e-05 0.0010707456325939875 7.416268199546832e-05 0.001284007839272913" pbc="T T T"
Si       6.75127410       4.39081923       5.32294731
Si       6.87392156       1.12507009       4.11710585
Si       4.25692054       3.49255769       2.28009218
Si       7.67193893       3.29645221       3.35526554
Si       3.11571244       5.06766740       5.63975741
Si       2.38239113       1.98793642      -0.76142587
Si       1.46494821       5.36191465       0.86649661
Si       7.23432615       1.35013129       6.47306037
Si       4.50362686       2.38234724       0.26237843
Si       5.07763612       5.94913559       4.61274868
Si       3.07155824       0.53178929       6.79870845
Si       5.05303557       5.69012917       2.25270657
Si       5.00622674       2.41533652       4.18715802
Si       3.33551698       6.86512573       1.09192990
14
Lattice="5.800468290204689 -0.3803430613968911 0.7832169989162421 2.1409011661741197 7.4682558975912 -1.111423584535861 1.3808431727224657 0.7653132419051102 6.845900844377044" Properties=species:S:1:pos:R:3 unique_starting_index=86 config_type=initial n_minim_iter=10 stress="0.0019217097692495974 0.00016276326200316085 -0.0011891582246008892 0.00016276326200316085 0.00024227336254342596 2.7556963287584362e-06 -0.0011891582246008892 2.7556963287584362e-06 -0.0035027107195663224" pbc="T T T"
Si       6.77762135       4.39732699       5.30034736
Si       6.87907108       1.12268276       4.08405685
Si       4.26241029       3.49146989       2.23802470
Si       7.68969347       3.30348779       3.34364369
Si       3.11505173       5.05680683       5.62838122
Si       2.39827106       1.96979116      -0.78816991
Si       1.47798986       5.36465499       0.87267216
Si       7.22419399       1.33303696       6.42778986
Si       4.50902732       2.37583664       0.23333024
Si       5.08053297       5.93356175       4.58069215
Si       3.05811985       0.52920049       6.74991364
Si       5.06670753       5.68649811       2.22593590
Si       4.99017362       2.39750794       4.12162136
Si       3.35985243       6.87070002       1.06968220
14
Lattice="5.792032577879171 -0.38045316939729157 0.8004277745812901 2.1368567479444622 7.4634683239199235 -1.1330888219964852 1.3950399817507135 0.7434676223941126 6.865353558238259" Properties=species:S:1:pos:R:3 unique_starting_index=86 config_type=initial n_minim_iter=11 stress="0.0005275789246617272 0.00080241547089562 -9.148624671192662e-05 0.00080241547089562 9.506995320303259e-05 -0.002654049210365514 -9.148624671192662e-05 -0.002654049210365514 -0.0019315687772456889" pbc="T T T"
Si       6.80308777       4.39189818       5.33335423
Si       6.87032438       1.11298489       4.11173638
Si       4.25327561       3.48884233       2.22923205
Si       7.68467460       3.30721166       3.38955602
Si       3.12987550       5.03064409       5.65801311
Si       2.39625024       1.95601998      -0.81263598
Si       1.49036581       5.36221183       0.87901905
Si       7.20869237       1.30145186       6.46333715
Si       4.49131087       2.36576958       0.22047221
Si       5.08615946       5.90419481       4.59091613
Si       3.06491617       0.50963228       6.76736577
Si       5.07242307       5.67639679       2.22295269
Si       4.97050823       2.36840533       4.10624262
Si       3.37723252       6.87461272       1.05248098
14
Lattice="5.791140872784143 -0.3842696295763585 0.808615392390769 2.1272489481576304 7.45109903192587 -1.1195418652388938 1.403304334283569 0.7520147939134059 6.875453224242424" Properties=species:S:1:pos:R:3 unique_starting_index=86 config_type=initial n_minim_iter=12 stress="-0.0001552627791135506 0.0005107102192382809 4.38283548790522e-05 0.0005107102192382809 6.610787249432615e-07 -0.0017984476820156131 4.38283548790522e-05 -0.0017984476820156131 -0.000793399681524683" pbc="T T T"
Si       6.82151989       4.39833500       5.35910434
Si       6.87192320       1.11316174       4.12650479
Si       4.24047799       3.49078069       2.24026516
Si       7.68247923       3.31221706       3.42566231
Si       3.13158362       5.03096300       5.68928388
Si       2.39134152       1.94418980      -0.81828614
Si       1.49097391       5.35823848       0.90363083
Si       7.20242272       1.29429971       6.48300460
Si       4.48044461       2.34959094       0.21767580
Si       5.08828640       5.89290715       4.61351935
Si       3.06969171       0.51811252       6.77970343
Si       5.07707097       5.66872692       2.23843665
Si       4.95986238       2.35600071       4.10336069
Si       3.38071067       6.87533269       1.06628533
14
Lattice="5.794457148236114 -0.3886241392679799 0.8154124845465837 2.117100831709073 7.436371980361865 -1.0949791439423457 1.4118877224004143 0.7696881105672584 6.882656843063397" Properties=species:S:1:pos:R:3 unique_starting_index=86 config_type=initial n_minim_iter=13 stress="-0.00034179310560965363 -5.5594219165418144e-05 7.207932285463117e-05 -5.5594219165418144e-05 -4.736726405966957e-05 -6.528019609510697e-05 7.207932285463117e-05 -6.528019609510697e-05 0.0003068641861252707" pbc="T T T"
Si       6.83887674       4.40851308       5.38293236
Si       6.88093488       1.11831450       4.13782364
Si       4.22830651       3.49239458       2.25753748
Si       7.68438650       3.31603687       3.45625067
Si       3.13223553       5.04061909       5.71916340
Si       2.38462043       1.93610266      -0.81539943
Si       1.48887792       5.35332762       0.93231865
Si       7.20466974       1.29475220       6.49732938
Si       4.47431085       2.33382219       0.22185448
Si       5.09368190       5.88867938       4.63992844
Si       3.07673960       0.53432891       6.79067518
Si       5.08406323       5.66241167       2.26161971
Si       4.95758843       2.34774933       4.10909838
Si       3.37899460       6.87260481       1.09267149
14
Lattice="5.802178222855095 -0.39255983503890046 0.8228573096056847 2.108017194003615 7.418198290733908 -1.0651583328579046 1.423151004870911 0.7905545763125117 6.8853597343497395" Properties=species:S:1:pos:R:3 unique_starting_index=86 config_type=initial n_minim_iter=14 stress="-2.63572024005007e-05 -0.0005112171149662765 -1.3446552675610648e-05 -0.0005112171149662765 1.2124736063628797e-06 0.001680461705827629 -1.3446552675610648e-05 0.001680461705827629 0.001122660815064568" pbc="T T T"
Si       6.86534746       4.42590335       5.40991096
Si       6.89854945       1.12978508       4.14580052
Si       4.21387048       3.49106847       2.27124230
Si       7.69119050       3.32046935       3.48738978
Si       3.13841476       5.05506713       5.75092417
Si       2.37479149       1.93127491      -0.81196238
Si       1.49116194       5.34801183       0.96668439
Si       7.21078666       1.29128878       6.50482452
Si       4.46961647       2.31767411       0.22794416
Si       5.10910095       5.88434874       4.66622744
Si       3.08665420       0.55162846       6.79574845
Si       5.09987012       5.65644525       2.29021826
Si       4.95820533       2.32999304       4.11278740
Si       3.37798710       6.86682768       1.12868851
14
Lattice="5.801891320893108 -0.39021067379837027 0.8241352491526586 2.1128257495988128 7.420637107043866 -1.0796257688299566 1.425358147210777 0.7762379078397411 6.87402765810442" Properties=species:S:1:pos:R:3 unique_starting_index=86 config_type=initial n_minim_iter=15 stress="0.00022922285088463546 0.00013298575250070608 -2.6170828678645843e-05 0.00013298575250070608 8.733401447463521e-05 -0.0002920682205616971 -2.6170828678645843e-05 -0.0002920682205616971 -0.00034929839982220497" pbc="T T T"
Si       6.87417275       4.43155270       5.40998627
Si       6.90199113       1.13365905       4.13646913
Si       4.21353296       3.48060174       2.24681280
Si       7.69057284       3.31827389       3.47974801
Si       3.15256371       5.05025466       5.73968671
Si       2.37054202       1.93951093      -0.82231952
Si       1.50424221       5.35105224       0.95830577
Si       7.20393138       1.26915025       6.48877261
Si       4.46705806       2.32425129       0.22199059
Si       5.12302392       5.87712467       4.64818750
Si       3.08623154       0.53427211       6.77790310
Si       5.10767345       5.65703399       2.28207959
Si       4.95029476       2.30369802       4.09499629
Si       3.38335182       6.86308939       1.12312647
14
Lattice="5.795290636194538 -0.39176822109722853 0.8315352296310803 2.1062289942279815 7.412762208989505 -1.0784863373430857 1.4317599557052367 0.7740337265357536 6.877380615910428" Properties=species:S:1:pos:R:3 unique_starting_index=86 config_type=initial n_minim_iter=16 stress="-0.00047611750757220835 -9.352773517897865e-05 6.80871852979629e-05 -9.352773517897865e-05 -0.0006359049493621726 -0.00016261445950675727 6.80871852979629e-05 -0.00016261445950675727 -3.4732446608123177e-05" pbc="T T T"
Si       6.88357184       4.43554662       5.42780565
Si       6.90488348       1.13273618       4.13770283
Si       4.20765045       3.47111210       2.25404177
Si       7.67862862       3.31673116       3.49351449
Si       3.16076496       5.05738351       5.74638504
Si       2.35942516       1.94387892      -0.82517123
Si       1.50634045       5.34774326       0.96442772
Si       7.19203874       1.25272126       6.49548167
Si       4.45712490       2.31506565       0.21545107
Si       5.13092100       5.87131753       4.65860094
Si       3.08583149       0.53314922       6.78763616
Si       5.10172207       5.64644262       2.28760862
Si       4.92948688       2.27861511       4.09298450
Si       3.38459710       6.85443017       1.13425182
14
Lattice="5.791841012901212 -0.390241303067728 0.8333917467722828 2.10720698573551 7.417982193058839 -1.0801094966401183 1.4332686889180786 0.7728308703953806 6.877318034115758" Properties=species:S:1:pos:R:3 unique_starting_index=86 config_type=initial n_minim_iter=17 stress="-0.0003082620211340928 -5.192314837724482e-05 4.067213520764717e-05 -5.192314837724482e-05 -0.0001806602529002484 -2.1186964363080484e-06 4.067213520764717e-05 -2.1186964363080484e-06 5.65363829960196e-05" pbc="T T T"
Si       6.88648353       4.44266138       5.43360215
Si       6.90596666       1.13498315       4.13484428
Si       4.21135487       3.46843057       2.25742407
Si       7.67332145       3.32042350       3.49275469
Si       3.16780967       5.06910798       5.74185660
Si       2.35497666       1.95204372      -0.82507187
Si       1.50784338       5.35260161       0.96182764
Si       7.18611670       1.24975132       6.49526919
Si       4.45548360       2.31697809       0.21106203
Si       5.13759949       5.87945435       4.65984542
Si       3.08406186       0.53485470       6.79244921
Si       5.09762719       5.64617094       2.28869787
Si       4.91802615       2.26942124       4.09229507
Si       3.38751996       6.85601724       1.13682973
14
Lattice="5.790880650620437 -0.38811085202560824 0.8334329821577048 2.1103534097385643 7.422988764096551 -1.0827890288519635 1.4333716807508168 0.7713092864405943 6.876468592518887" Properties=species:S:1:pos:R:3 unique_starting_index=86 config_type=initial n_minim_iter=18 stress="0.0003282658281343678 6.0481406276696344e-06 -4.8742632388546844e-05 6.0481406276696344e-06 0.0005439136585929979 0.000165713914863219 -4.8742632388546844e-05 0.000165713914863219 0.00010395911774457705" pbc="T T T"
Si       6.89206038       4.44872687       5.43626333
Si       6.90707200       1.13777059       4.13035651
Si       4.21920462       3.46217915       2.26013975
Si       7.67161685       3.32390492       3.48687725
Si       3.17684564       5.08360170       5.73139834
Si       2.35036099       1.96328855      -0.82345565
Si       1.50758075       5.35777345       0.95604453
Si       7.18216439       1.24780891       6.49216927
Si       4.45732205       2.32093840       0.20566642
Si       5.14887745       5.89189305       4.65761379
Si       3.08163570       0.54114779       6.79907547
Si       5.09469684       5.64077745       2.29052946
Si       4.90661830       2.25407427       4.09226626
Si       3.39171291       6.85593300       1.13618309
14
Lattice="5.7954396994197435 -0.3895612406765544 0.8335231144603 2.1086071371076014 7.407253395991691 -1.0802577766464423 1.4340086846001745 0.771994304205212 6.879459055408581" Properties=species:S:1:pos:R:3 unique_starting_index=86 config_type=initial n_minim_iter=19 stress="0.00014160172399092455 6.827933983521291e-05 2.4892404718004232e-05 6.827933983521291e-05 2.0676084341127472e-05 -1.1269076003568795e-05 2.4892404718004232e-05 -1.1269076003568795e-05 -9.413957392091324e-05" pbc="T T T"
Si       6.90300856       4.44009984       5.44001373
Si       6.90212059       1.13552189       4.13889736
Si       4.21784633       3.44949018       2.25665085
Si       7.67994489       3.31911054       3.49452844
Si       3.17948637       5.07560254       5.73592507
Si       2.34990631       1.95747144      -0.82555630
Si       1.50455270       5.34929680       0.96018476
Si       7.18386013       1.24407403       6.49643021
Si       4.45775419       2.31740496       0.20594419
Si       5.15569261       5.88573634       4.65968488
Si       3.08371740       0.55229732       6.80269172
Si       5.09861198       5.62110103       2.29799096
Si       4.90435484       2.23233955       4.09181090
Si       3.39386104       6.84456853       1.13332917
14
Lattice="5.79261796478034 -0.39405551317903403 0.8336495897841816 2.1007641235937533 7.393624656841997 -1.0807438796949538 1.432343341584121 0.7697104173421155 6.882506760664938" Properties=species:S:1:pos:R:3 unique_starting_index=86 config_type=initial n_minim_iter=20 stress="-0.0006757279507155697 -8.949400512307935e-05 -6.449158025552853e-05 -8.949400512307935e-05 -0.0006715985119540614 -0.0003220918481526623 -6.449158025552853e-05 -0.0003220918481526623 0.000183006960933461" pbc="T T T"
Si       6.90085360       4.42987865       5.43599217
Si       6.89694613       1.12460602       4.14289361
Si       4.20699197       3.42855283       2.26299316
Si       7.67658269       3.30644384       3.49306760
Si       3.17609388       5.07267496       5.73366999
Si       2.34692016       1.95980550      -0.82654462
Si       1.49760206       5.33908751       0.95803517
Si       7.17474884       1.23649393       6.49903402
Si       4.45298256       2.31028996       0.20289365
Si       5.15828687       5.88210323       4.66337235
Si       3.08255197       0.55868867       6.80731922
Si       5.08957672       5.60341700       2.29881212
Si       4.88623260       2.20664443       4.09728495
Si       3.38630563       6.83009965       1.13863714
14
Lattice="5.79637175572746 -0.39456407543327143 0.8354851219083895 2.099939808091171 7.390338609393259 -1.0738135135797913 1.4355926537936814 0.774726453110889 6.883254310807869" Properties=species:S:1:pos:R:3 unique_starting_index=86 config_type=initial n_minim_iter=21 stress="-0.00010867294185047423 -4.1615744483688504e-05 9.55884514823957e-05 -4.1615744483688504e-05 -0.00022570067975808528 -2.1132478617308943e-05 9.55884514823957e-05 -2.1132478617308943e-05 8.279389893276817e-05" pbc="T T T"
Si       6.90986725       4.43470849       5.44294987
Si       6.89878644       1.12508216       4.15037072
Si       4.20731084       3.42301549       2.26566934
Si       7.68361673       3.30711467       3.50126128
Si       3.18233140       5.07646062       5.74034836
Si       2.35008813       1.95852185      -0.82841204
Si       1.49949186       5.33917798       0.96349113
Si       7.17616227       1.23976076       6.50413818
Si       4.45370130       2.31051232       0.20406403
Si       5.16608132       5.88660773       4.67060934
Si       3.08767740       0.56790311       6.80621776
Si       5.09217296       5.60175697       2.30591640
Si       4.88075990       2.19822116       4.09719331
Si       3.38955606       6.83006295       1.14627961
