12
Lattice="5.486697502527124 -1.1427173360057612 -5.910217262755409e-13 -0.9602657145431575 3.6876431825149583 1.1075469793285252e-12 6.127218659114531e-13 -3.693798852655273e-12 12.829964075723877" Properties=species:S:1:pos:R:3 unique_starting_index=57 config_type=initial n_minim_iter=18 energy=-1956.7191293181368 free_energy=-1956.7191293181368 pbc="T T T"
Si       0.64930170       2.47980197       0.77953181
Si       3.87713010       0.06512387       7.19451385
Si       3.39476333       1.90835926       8.55745380
Si       1.13166846       0.63656658       2.14247176
Si       1.56748576       1.74578965      10.07049118
Si       2.95894604       0.79913620       3.65550914
Si       1.09108852       3.59109579       5.67934329
Si       3.43534327      -1.04616994      12.09432532
Si       4.30983595       1.17464180      12.09463432
Si       0.21659585       1.37028404       5.67965229
Si       4.79327391      -0.66791454       3.65617630
Si      -0.26684211       3.21284038      10.07115834
