14
Lattice="6.280475474209244 2.8393004371963957 -6.1790219390439065e-15 -0.09337228475922428 6.891827099633763 -9.264294390085082e-15 -3.0935515947250076 -4.865563768415072 5.67342488028064" Properties=species:S:1:pos:R:3 unique_starting_index=174 config_type=initial n_minim_iter=1 energy=-2279.0265294385363 free_energy=-2279.0265294385363 pbc="T T T"
Si       1.25041695       1.58710377       3.81171358
Si       4.00025752       6.67120085       1.86171130
Si      -1.25041695      -1.58710378       3.81171358
Si       2.18684567       3.05992668       1.86171130
Si      -1.29710309       1.85880977       4.69842374
Si      -0.95339207       1.64027646       0.97500114
Si       1.20373080       5.03301732       4.69842374
Si       0.86001978       5.25155064       0.97500114
Si       1.85849160       2.92305110       5.67342488
Si       1.23505999       1.94251267      -0.00000000
Si      -1.90517775       0.52286245       2.83671244
Si       1.81180545       6.36896465       2.83671244
Si      -0.04668615       3.44591355       2.83671244
Si      -0.00000000      -0.00000000       5.67342488
14
Lattice="6.27389273709226 2.8319874710867605 -6.164262885994563e-15 -0.09720178554386487 6.882763611066308 -9.275831953257889e-15 -3.088345475774196 -4.857375541076527 5.666397732918164" Properties=species:S:1:pos:R:3 unique_starting_index=174 config_type=initial n_minim_iter=2 stress="-0.0009688894663893657 0.00039058846330944645 1.2668161140133591e-17 0.00039058846330944645 -0.0006029069155150075 -1.1068658297443568e-16 1.2668161140133591e-17 -1.1068658297443568e-16 -0.0008412477494915934" pbc="T T T"
Si       1.24821240       1.58406121       3.80716101
Si       3.99323150       6.65972550       1.85923672
Si      -1.24821240      -1.58406121       3.80716101
Si       2.18345945       3.05502558       1.85923672
Si      -1.29681329       1.85732059       4.69243559
Si      -0.95348692       1.63903184       0.97396214
Si       1.19961150       5.02544301       4.69243559
Si       0.85628513       5.24373177       0.97396214
Si       1.85550013       2.91834609       5.66639773
Si       1.23284534       1.93902945      -0.00000000
Si      -1.90410102       0.52303571       2.83319887
Si       1.80689923       6.35972789       2.83319887
Si      -0.04860090       3.44138180       2.83319887
Si      -0.00000000      -0.00000000       5.66639773
14
Lattice="6.281769685436121 2.778608277212026 -6.093166692770688e-15 -0.1488808594644635 6.867250456240884 -9.199723373515764e-15 -3.0664444129858266 -4.822929366726447 5.669221710206624" Properties=species:S:1:pos:R:3 unique_starting_index=174 config_type=initial n_minim_iter=3 stress="0.001056078657633428 -0.0019296406896434865 1.5645448099132264e-16 -0.0019296406896434865 -0.0007520004030786032 -4.316664037589808e-17 1.5645448099132264e-16 -4.316664037589808e-17 0.00040900708014562725" pbc="T T T"
Si       1.23641345       1.56634274       3.81210744
Si       3.96029125       6.60707780       1.85711427
Si      -1.23641346      -1.56634274       3.81210744
Si       2.17259757       3.03878093       1.85711427
Si      -1.31085389       1.86728249       4.69172513
Si      -0.96828727       1.64947679       0.97749658
Si       1.16197302       4.99996797       4.69172513
Si       0.81940641       5.21777366       0.97749658
Si       1.84507237       2.90194523       5.66922171
Si       1.22137203       1.92098413      -0.00000000
Si      -1.91951281       0.53168000       2.83461085
Si       1.77063194       6.33557046       2.83461085
Si      -0.07444043       3.43362523       2.83461085
Si      -0.00000000      -0.00000000       5.66922171
14
Lattice="6.285964148939011 2.7963355289502303 -6.17469831332485e-15 -0.13460752664603204 6.878569508697733 -9.248723177537838e-15 -3.075678311146487 -4.837452518823975 5.6570697587555285" Properties=species:S:1:pos:R:3 unique_starting_index=174 config_type=initial n_minim_iter=4 stress="-0.0007709485659877607 6.251647871263428e-05 2.1809521663603048e-17 6.251647871263428e-05 -0.0007123704396471316 -2.0186814506942962e-16 2.1809521663603048e-17 -2.0186814506942962e-16 0.0005796938355910945" pbc="T T T"
Si       1.22689580       1.56261693       3.80969111
Si       3.97018912       6.61140161       1.84737865
Si      -1.22689580      -1.56261694       3.80969111
Si       2.18116749       3.06350342       1.84737865
Si      -1.29419957       1.87666782       4.67591352
Si      -0.96181458       1.66533566       0.98115623
Si       1.15959203       5.00190169       4.67591352
Si       0.82720705       5.21323385       0.98115623
Si       1.85659325       2.92006536       5.65706976
Si       1.21908505       1.91738715      -0.00000000
Si      -1.92389702       0.51921939       2.82853488
Si       1.78928949       6.35935012       2.82853488
Si      -0.06730377       3.43928475       2.82853488
Si      -0.00000000      -0.00000000       5.65706976
14
Lattice="6.298808166691461 2.8027824147400255 -6.181966689436534e-15 -0.134218645255228 6.892935437128428 -9.245241862085393e-15 -3.0822947607181135 -4.847858925934218 5.639649616368265" Properties=species:S:1:pos:R:3 unique_starting_index=174 config_type=initial n_minim_iter=5 stress="0.0006358424491510204 -1.9124259948911604e-05 4.7659632858830336e-17 -1.9124259948911604e-05 0.0006179229607456329 -2.966830582797131e-17 4.7659632858830336e-17 -2.966830582797131e-17 -0.001147804638240289" pbc="T T T"
Si       1.22693570       1.56572292       3.79991429
Si       3.97960125       6.62316186       1.83973532
Si      -1.22693571      -1.56572292       3.79991429
Si       2.18498826       3.07255598       1.83973532
Si      -1.29404503       1.88074480       4.65956013
Si      -0.96441582       1.67116478       0.98008948
Si       1.15982638       5.01219063       4.65956013
Si       0.83019717       5.22177066       0.98008948
Si       1.86076574       2.92662789       5.63964962
Si       1.22152902       1.92123104      -0.00000000
Si      -1.92787507       0.51983983       2.81982481
Si       1.79365641       6.37309560       2.81982481
Si      -0.06710933       3.44646772       2.81982481
Si      -0.00000000      -0.00000000       5.63964962
14
Lattice="6.289845376690565 2.8045192435794903 -6.204243668819562e-15 -0.12884340990653548 6.8855560723885665 -9.22561081558608e-15 -3.080500983392011 -4.845037657984019 5.669615046773189" Properties=species:S:1:pos:R:3 unique_starting_index=174 config_type=initial n_minim_iter=6 stress="0.0007462112022366464 -0.000268137280154439 3.1235173551946986e-16 -0.000268137280154439 0.0004949657738799039 1.1322194286855834e-16 3.1235173551946986e-16 1.1322194286855834e-16 0.0006410411841639312" pbc="T T T"
Si       1.21253247       1.56732213       3.83078143
Si       3.98536620       6.60797629       1.83883361
Si      -1.21253248      -1.56732213       3.83078143
Si       2.17563577       3.08209902       1.83883361
Si      -1.27695419       1.87545590       4.67364113
Si      -0.96928692       1.67983940       0.99597391
Si       1.14811077       5.01010017       4.67364113
Si       0.84044351       5.20571667       0.99597391
Si       1.85853799       2.92312407       5.66961505
Si       1.22196298       1.92191358      -0.00000000
Si      -1.92295970       0.51965396       2.83480752
Si       1.79411629       6.36590211       2.83480752
Si      -0.06442171       3.44277803       2.83480752
Si      -0.00000000      -0.00000000       5.66961505
