22
Lattice="9.282833021883983 -0.19100717119551455 -2.4134435315430216 -4.081480944171709 8.339603465033123 2.4134435315427254 -4.635006863673758 -2.775759051243674 7.927424259790228" Properties=species:S:1:pos:R:3 unique_starting_index=6 config_type=initial n_minim_iter=1 energy=-3579.701583659991 free_energy=-3579.701583659991 pbc="T T T"
Si      -5.37957099       6.08102938       7.71414434
Si       1.57988700       2.07869953       5.39294995
Si       4.83483627       1.47010171      -0.91499987
Si      -0.72876138       1.64328131       4.64304045
Si       5.86815786      -0.65855800       0.12103077
Si      -0.93578344       3.24450359       2.62672345
Si       2.36370898       5.40366093       3.28438381
Si      -5.33709344       2.22863055       8.84242413
Si      -1.51657539       5.46922348       3.25303228
Si       0.41791608       6.70074977       4.22103138
Si       1.30723518       3.72191949       1.95428751
Si       1.48762821       5.96276897       0.90066759
Si       1.26697805       0.42444022       3.70639288
Si       0.96437169      -1.84873897       4.67439197
Si       0.14722380       1.08402351       7.02675666
Si      -1.80939676      -0.02303747       5.97313675
Si      -2.57117798       2.71998383       0.55922010
Si       0.54847077       4.30547833       4.29666389
Si      -0.96062557      -0.46558895       3.63076036
Si      -5.16680981       4.37680846       9.78164769
Si       2.60067604       4.07429815      -0.00000000
Si       2.32391308      -1.48338311       2.75699036
22
Lattice="9.280418996414515 -0.19109766428052713 -2.3921753242204864 -4.080546681252227 8.33737571712033 2.3921753242201906 -4.616339658396822 -2.786043168399809 7.925438124813022" Properties=species:S:1:pos:R:3 unique_starting_index=6 config_type=initial n_minim_iter=2 stress="-4.589795746531444e-05 0.00021702067378536635 0.0005650155144640654 0.00021702067378536635 0.00015556618688826796 -0.00036065654919273594 0.0005650155144640654 -0.00036065654919273594 -0.00018442513828355046" pbc="T T T"
Si      -5.36573830       6.07040064       7.69706445
Si       1.59268586       2.07069762       5.39683962
Si       4.83415878       1.46977354      -0.90658894
Si      -0.71831868       1.63574484       4.64144881
Si       5.87176435      -0.66069230       0.13642317
Si      -0.93164660       3.24006383       2.62054899
Si       2.36966389       5.39735767       3.28398931
Si      -5.31843867       2.21759374       8.83202706
Si      -1.51131024       5.46532008       3.24252375
Si       0.42554022       6.69316299       4.21449309
Si       1.31066563       3.71791903       1.95355438
Si       1.48758764       5.96134284       0.89562358
Si       1.27555375       0.41787744       3.71094503
Si       0.97728158      -1.85589072       4.68291438
Si       0.16461450       1.07310217       7.02981454
Si      -1.79580247      -0.03189425       5.97188374
Si      -2.57205711       2.71970718       0.54967765
Si       0.55799469       4.29860550       4.29408558
Si      -0.95220211      -0.47012794       3.63135254
Si      -5.14708915       4.36338271       9.76793580
Si       2.59993616       4.07313903      -0.00000000
Si       2.33203967      -1.48857041       2.76663140
22
Lattice="9.291148408965055 -0.21374799851444845 -2.404931473548603 -4.105608994147834 8.337571693932034 2.404931473548308 -4.619925575881476 -2.767952617417291 7.94666900894938" Properties=species:S:1:pos:R:3 unique_starting_index=6 config_type=initial n_minim_iter=3 stress="0.0013132803925108515 -0.00103063206192674 -8.826702110680192e-05 -0.00103063206192674 0.00035652635208904235 5.634195597237508e-05 -8.826702110680192e-05 5.634195597237508e-05 0.001971145894912342" pbc="T T T"
Si      -5.39213558       6.07584659       7.72466807
Si       1.58531964       2.07100173       5.40926435
Si       4.83671481       1.45718685      -0.91364130
Si      -0.72532451       1.63537027       4.65375298
Si       5.88228499      -0.67180560       0.13247318
Si      -0.94424137       3.23669945       2.62693241
Si       2.35435489       5.38648150       3.29291603
Si      -5.33451752       2.23270354       8.86031030
Si      -1.52687982       5.46596514       3.25248120
Si       0.40702873       6.68266907       4.22796403
Si       1.30052267       3.70983611       1.96146420
Si       1.47318954       5.95348740       0.89982429
Si       1.27024295       0.41475897       3.71870498
Si       0.98083583      -1.85165102       4.69418781
Si       0.15996513       1.07482561       7.04684472
Si      -1.80244966      -0.02640695       5.98520480
Si      -2.58180463       2.72135505       0.55586755
Si       0.54736792       4.29416119       4.30621349
Si      -0.95534520      -0.46354756       3.64045551
Si      -5.17013882       4.37352149       9.79573293
Si       2.59276971       4.06191185      -0.00000000
Si       2.33561142      -1.49085030       2.77086877
22
Lattice="9.281899515466948 -0.2138666694218884 -2.4056959720382127 -4.101822696709599 8.329132495780975 2.405695972037918 -4.6178386869693275 -2.7632623483976766 7.938936813733513" Properties=species:S:1:pos:R:3 unique_starting_index=6 config_type=initial n_minim_iter=4 stress="-0.0007512948592776778 -0.0011285083433035465 6.123998945243624e-05 -0.0011285083433035465 -0.0017989091893486045 -3.909025983032174e-05 6.123998945243624e-05 -3.909025983032174e-05 -3.0953725545123825e-05" pbc="T T T"
Si      -5.38977297       6.06921018       7.72072098
Si       1.58172364       2.07240306       5.40293769
Si       4.83220746       1.45603448      -0.91522525
Si      -0.72553760       1.63351341       4.64920007
Si       5.87790804      -0.66990578       0.13030315
Si      -0.94538245       3.23229950       2.62391181
Si       2.34938463       5.38163885       3.28973674
Si      -5.33157822       2.23282024       8.85416206
Si      -1.52568801       5.46214313       3.24979320
Si       0.40522026       6.67484000       4.22490301
Si       1.29775918       3.70563332       1.96102013
Si       1.47080735       5.94893004       0.89989239
Si       1.26598984       0.41451269       3.71403380
Si       0.97895417      -1.84748884       4.68914361
Si       0.15892119       1.07543638       7.03904442
Si      -1.80301145      -0.02599276       5.97791668
Si      -2.57944845       2.71800326       0.55772197
Si       0.54639336       4.29060871       4.30227078
Si      -0.95607030      -0.46123692       3.63666603
Si      -5.16829787       4.37049859       9.78691081
Si       2.59003841       4.05763292      -0.00000000
Si       2.33203041      -1.48856451       2.76662042
22
Lattice="9.284274211731153 -0.1946562336839581 -2.410882388406605 -4.085397601837855 8.339374384378425 2.410882388406309 -4.631610299519799 -2.7751979883220095 7.930602419592902" Properties=species:S:1:pos:R:3 unique_starting_index=6 config_type=initial n_minim_iter=5 stress="7.016954763946872e-05 1.3736260089569328e-05 -2.456245818100014e-05 1.3736260089569328e-05 8.29211617476343e-05 1.5678527722387387e-05 -2.456245818100014e-05 1.5678527722387387e-05 6.14015251686178e-05" pbc="T T T"
Si      -5.38496529       6.07107426       7.72067630
Si       1.58189881       2.08808461       5.39470175
Si       4.83721923       1.47036501      -0.91956145
Si      -0.72480451       1.63624209       4.64435163
Si       5.88066137      -0.65586991       0.12501828
Si      -0.94306227       3.23575138       2.62080850
Si       2.35657922       5.40096931       3.28625078
Si      -5.33446133       2.23146394       8.85016387
Si      -1.51548765       5.47466755       3.24817693
Si       0.41674935       6.68989785       4.22304366
Si       1.30314802       3.71620734       1.96161076
Si       1.48275366       5.96874323       0.90103933
Si       1.26102256       0.41937416       3.70755876
Si       0.97224835      -1.84489923       4.68242549
Si       0.15809160       1.08267836       7.02956308
Si      -1.80946066      -0.02858859       5.96899166
Si      -2.57428207       2.71774166       0.56251279
Si       0.55408283       4.30339050       4.29843195
Si      -0.96148555      -0.46081646       3.63217046
Si      -5.16805680       4.37338088       9.77897201
Si       2.59943830       4.07235908      -0.00000000
Si       2.32633196      -1.48492711       2.75986001
22
Lattice="9.268500696726475 -0.20699033112885776 -2.408606561878816 -4.089944368194499 8.31987411127569 2.408606561878521 -4.619531827554365 -2.760505298170296 7.923942953183823" Properties=species:S:1:pos:R:3 unique_starting_index=6 config_type=initial n_minim_iter=6 stress="-0.0008108857287638109 0.0004559475119670733 0.00020599683984046885 0.0004559475119670733 -0.0003876215587367178 -0.00013149038831614495 0.00020599683984046885 -0.00013149038831614495 -0.001101922843464548" pbc="T T T"
Si      -5.38134338       6.04948370       7.71569953
Si       1.57906367       2.08677043       5.38230793
Si       4.82459215       1.45927161      -0.91911246
Si      -0.72473820       1.63295065       4.64236700
Si       5.87696794      -0.65663623       0.13302846
Si      -0.95663923       3.22513908       2.61684998
Si       2.34532399       5.38250202       3.28157595
Si      -5.32712894       2.23003269       8.84305541
Si      -1.52547207       5.45871026       3.24273947
Si       0.41113985       6.67100387       4.22287395
Si       1.29453023       3.69548989       1.95645741
Si       1.47866792       5.95276445       0.89715651
Si       1.25832489       0.42102406       3.70106900
Si       0.97405632      -1.84598121       4.68120348
Si       0.15739663       1.08693773       7.02678644
Si      -1.81254578      -0.03043509       5.96748554
Si      -2.56682262       2.72223748       0.56768213
Si       0.54599991       4.27689011       4.29564123
Si      -0.97004129      -0.46461251       3.62830172
Si      -5.15958770       4.37723223       9.76486738
Si       2.58927816       4.05644189      -0.00000000
Si       2.32448443      -1.48374781       2.75766819
22
Lattice="9.270825273900815 -0.23049823649420204 -2.414869943587456 -4.112245967776622 8.312085406005602 2.414869943587162 -4.614822823236423 -2.7414870168321364 7.9385506729719975" Properties=species:S:1:pos:R:3 unique_starting_index=6 config_type=initial n_minim_iter=7 stress="0.00033891763044494944 -0.00017600462955523352 -0.00012167902192932841 -0.00017600462955523352 0.00017552940812865861 7.766925869246937e-05 -0.00012167902192932841 7.766925869246937e-05 0.0004512636417161906" pbc="T T T"
Si      -5.39962745       6.04249140       7.73275907
Si       1.57547276       2.08570171       5.38769433
Si       4.82119256       1.44437800      -0.92241027
Si      -0.72948763       1.63102180       4.65182687
Si       5.88454396      -0.66483294       0.13598639
Si      -0.97287631       3.21684016       2.62066155
Si       2.33030599       5.36510362       3.28672380
Si      -5.33449795       2.23969690       8.86096094
Si      -1.54273674       5.45291457       3.24692921
Si       0.39525771       6.65390941       4.23430829
Si       1.28262034       3.67924317       1.96024753
Si       1.46631227       5.94045197       0.89845410
Si       1.25421496       0.41843934       3.70424237
Si       0.98077704      -1.84506299       4.69162146
Si       0.15613950       1.08956503       7.04009657
Si      -1.81755915      -0.02905985       5.97830314
Si      -2.57215576       2.72797369       0.57269346
Si       0.53389840       4.26025856       4.30266722
Si      -0.97532305      -0.46357310       3.63588345
Si      -5.16973191       4.38603940       9.78072715
Si       2.57928965       4.04079359      -0.00000000
Si       2.32800123      -1.48599262       2.76184036
22
Lattice="9.263839895516137 -0.24572311313859735 -2.4093777450755085 -4.123114775714721 8.299339371562723 2.4093777450752154 -4.601266264790008 -2.7304566075333585 7.940854239402385" Properties=species:S:1:pos:R:3 unique_starting_index=6 config_type=initial n_minim_iter=8 stress="0.0001375669861088519 -5.6730516447909354e-05 3.51749935862487e-05 -5.6730516447909354e-05 8.490304052445603e-05 -2.2452643298863927e-05 3.51749935862487e-05 -2.2452643298863927e-05 0.00017377878357746808" pbc="T T T"
Si      -5.40319739       6.02591021       7.72793894
Si       1.58110382       2.08128352       5.38727427
Si       4.81314661       1.43292047      -0.91793287
Si      -0.73003381       1.62828006       4.65474785
Si       5.88473685      -0.66577987       0.14420222
Si      -0.98372557       3.20490545       2.62229304
Si       2.32375140       5.34651340       3.28610639
Si      -5.32794649       2.23860540       8.85878711
Si      -1.55432096       5.44563818       3.24208174
Si       0.38814311       6.63375402       4.24015781
Si       1.27214539       3.66283518       1.95931975
Si       1.45971399       5.92839056       0.89845538
Si       1.25248488       0.41453068       3.70069643
Si       0.99261068      -1.84760356       4.69877250
Si       0.16153371       1.08953239       7.04239885
Si      -1.81447538      -0.03443881       5.98153448
Si      -2.57575725       2.73682064       0.56807692
Si       0.52273970       4.24114950       4.29717499
Si      -0.97440141      -0.47070946       3.64367925
Si      -5.15750322       4.38478175       9.78215506
Si       2.57036256       4.02680813      -0.00000000
Si       2.33128682      -1.48808986       2.76573825
22
Lattice="9.258405912112485 -0.25977432238842824 -2.406511723170918 -4.133572168362186 8.288494667969239 2.4065117231706266 -4.590904759174613 -2.7195506980345274 7.943834017574795" Properties=species:S:1:pos:R:3 unique_starting_index=6 config_type=initial n_minim_iter=9 stress="-3.622750791286222e-05 2.590998142859616e-05 1.6644460032672185e-05 2.590998142859616e-05 -1.2174812159974868e-05 -1.0624369357631222e-05 1.6644460032672185e-05 -1.0624369357631222e-05 -5.2766180887732564e-05" pbc="T T T"
Si      -5.40740523       6.01217942       7.72691261
Si       1.58398037       2.07834431       5.38629938
Si       4.80588209       1.42237211      -0.91564410
Si      -0.73060594       1.62631087       4.65817553
Si       5.88578728      -0.66755344       0.15102291
Si      -0.99450444       3.19536903       2.62343313
Si       2.31667625       5.33117537       3.28565849
Si      -5.32409442       2.23848097       8.85947811
Si      -1.56525837       5.43899109       3.23837141
Si       0.38156015       6.61654500       4.24580070
Si       1.26252134       3.64880860       1.95804658
Si       1.45404330       5.91714038       0.89902073
Si       1.25000843       0.41222021       3.69803332
Si       1.00154776      -1.84941699       4.70546260
Si       0.16407816       1.09055817       7.04481329
Si      -1.81278484      -0.03816784       5.98578743
Si      -2.57898522       2.74443181       0.56464756
Si       0.51180177       4.22506082       4.29333871
Si      -0.97402814      -0.47649843       3.65049530
Si      -5.14933635       4.38511944       9.78569818
Si       2.56241687       4.01436018      -0.00000000
Si       2.33375058      -1.48966251       2.76866115
22
Lattice="9.25232128864315 -0.28467373735884827 -2.399623337461012 -4.153595527224502 8.272492524097128 2.3996233374607234 -4.572044432887705 -2.7028061757595125 7.952102175317245" Properties=species:S:1:pos:R:3 unique_starting_index=6 config_type=initial n_minim_iter=10 stress="-0.0001533450436637487 9.378838027328598e-05 1.5418044524124334e-05 9.378838027328598e-05 -6.627962518372093e-05 -9.84153282691068e-06 1.5418044524124334e-05 -9.84153282691068e-06 -0.00021321135684287194" pbc="T T T"
Si      -5.41388516       5.98937714       7.72837199
Si       1.58888293       2.07337014       5.38638117
Si       4.79405904       1.40403231      -0.91279571
Si      -0.72851429       1.62207903       4.66654190
Si       5.89198708      -0.67335567       0.16609766
Si      -1.01362219       3.18063363       2.62335352
Si       2.30470948       5.30713390       3.28556028
Si      -5.31689157       2.23678000       8.86489788
Si      -1.58357046       5.42822390       3.23081966
Si       0.37200206       6.58753547       4.25544304
Si       1.24620450       3.62698295       1.95518045
Si       1.44497332       5.89760414       0.90103130
Si       1.24657968       0.40808155       3.69665913
Si       1.01835137      -1.85381567       4.72128251
Si       0.16903670       1.09085066       7.05107088
Si      -1.80685187      -0.04541252       5.99692172
Si      -2.58701823       2.75758114       0.55521935
Si       0.49296884       4.20027705       4.28776079
Si      -0.96971903      -0.48727075       3.66434139
Si      -5.13519021       4.38411154       9.79650616
Si       2.54936288       3.99390940      -0.00000000
Si       2.34013843      -1.49373995       2.77623942
22
Lattice="9.25639506179379 -0.2872282026025193 -2.3975001233609983 -4.157627688703193 8.27511217945113 2.397500123360709 -4.5702755459732165 -2.7039811543333094 7.95691044141984" Properties=species:S:1:pos:R:3 unique_starting_index=6 config_type=initial n_minim_iter=11 stress="-3.3087367076576265e-05 8.216850045871043e-06 -3.673845061617033e-05 8.216850045871043e-06 -2.5459519300125777e-05 2.3450617695925395e-05 -3.673845061617033e-05 2.3450617695925395e-05 -3.8332277292434746e-05" pbc="T T T"
Si      -5.41324246       5.98880116       7.73547687
Si       1.58704304       2.07475617       5.38765274
Si       4.79409346       1.40267746      -0.91531020
Si      -0.72397980       1.62056336       4.67059218
Si       5.89986156      -0.67817044       0.17175758
Si      -1.01667849       3.18241878       2.61893369
Si       2.30323608       5.30949901       3.28631825
Si      -5.31636609       2.23506583       8.87222064
Si      -1.58380970       5.42782673       3.23017141
Si       0.37283948       6.58764256       4.25543101
Si       1.24503822       3.62927465       1.95381727
Si       1.44546227       5.89583654       0.90324741
Si       1.24809315       0.40771124       3.70147943
Si       1.01986073      -1.85537487       4.72673902
Si       0.16899643       1.08937499       7.05366303
Si      -1.80251326      -0.04668053       6.00309317
Si      -2.59050103       2.75817096       0.55038676
Si       0.49144660       4.20292788       4.28931600
Si      -0.96490481      -0.48871044       3.66759444
Si      -5.13545217       4.38264546       9.80402380
Si       2.54938369       3.99394199      -0.00000000
Si       2.34305976      -1.49560467       2.77970516
22
Lattice="9.255253320514965 -0.30274446923737425 -2.389993313779691 -4.171221071343004 8.267543952985214 2.389993313779403 -4.556580369247419 -2.696477904319968 7.964296486857567" Properties=species:S:1:pos:R:3 unique_starting_index=6 config_type=initial n_minim_iter=12 stress="0.0002841972652523545 -0.00011882503921665301 0.0001270614579431477 -0.00011882503921665301 0.00017388987178702133 -8.110493567673565e-05 0.0001270614579431477 -8.110493567673565e-05 0.00036004475922875794" pbc="T T T"
Si      -5.41534148       5.97587619       7.73889365
Si       1.58949071       2.07121354       5.38997464
Si       4.78940604       1.39188748      -0.91187529
Si      -0.72166458       1.61662249       4.67612385
Si       5.90817114      -0.68545480       0.18432853
Si      -1.02741661       3.17500825       2.61539615
Si       2.29764681       5.29435863       3.28817264
Si      -5.31048452       2.23377457       8.87617177
Si      -1.59339231       5.41952409       3.23052718
Si       0.36434403       6.57499455       4.25904116
Si       1.23557894       3.61855695       1.95287244
Si       1.43912270       5.88414874       0.90545420
Si       1.25389263       0.40218364       3.70525533
Si       1.03005941      -1.86005910       4.73376931
Si       0.17475921       1.08620716       7.05884228
Si      -1.79455709      -0.05226968       6.01142405
Si      -2.59663660       2.76635364       0.54273636
Si       0.48202313       4.18843167       4.28712763
Si      -0.96039103      -0.49585791       3.67716886
Si      -5.12534507       4.38046025       9.81155344
Si       2.54201612       3.98239975      -0.00000000
Si       2.34933648      -1.49961118       2.78715158
22
Lattice="9.254436296368779 -0.30301592328005883 -2.3907514757928863 -4.171123313745757 8.266688582185544 2.390751475792597 -4.556859803337568 -2.6955065671170377 7.963753858054003" Properties=species:S:1:pos:R:3 unique_starting_index=6 config_type=initial n_minim_iter=13 stress="7.159669338429652e-05 -2.609571517322889e-05 3.55319955467026e-05 -2.609571517322889e-05 4.737157769964198e-05 -2.268052216569378e-05 3.55319955467026e-05 -2.268052216569378e-05 8.825390964209229e-05" pbc="T T T"
Si      -5.41553018       5.97364594       7.74106580
Si       1.58790885       2.07378100       5.38817556
Si       4.78948886       1.39168050      -0.91221628
Si      -0.72230595       1.61639303       4.67540005
Si       5.91006949      -0.68510881       0.18482681
Si      -1.02954180       3.17401408       2.61343953
Si       2.29671001       5.29352477       3.28835381
Si      -5.31098656       2.23473390       8.87597014
Si      -1.59347028       5.41854908       3.23233040
Si       0.36256956       6.57556605       4.25858228
Si       1.23362220       3.61845656       1.95286026
Si       1.43902569       5.88397413       0.90704956
Si       1.25487867       0.40178605       3.70517157
Si       1.02892842      -1.85956899       4.73142345
Si       0.17436223       1.08701699       7.05670430
Si      -1.79410376      -0.05311548       6.01089360
Si      -2.59716341       2.76761083       0.54203676
Si       0.48001708       4.18799828       4.28546451
Si      -0.96021898      -0.49688864       3.67828934
Si      -5.12416462       4.38062766       9.81246857
Si       2.54165649       3.98183633      -0.00000000
Si       2.34878825      -1.49926124       2.78650119
22
Lattice="9.253540020177772 -0.3050524588643455 -2.3917262265935886 -4.172593212058626 8.2650181968568 2.3917262265932995 -4.556498349648538 -2.693128647565303 7.9640941184782115" Properties=species:S:1:pos:R:3 unique_starting_index=6 config_type=initial n_minim_iter=14 stress="-0.00021792334627782298 8.381801357566527e-05 -8.36913386866443e-05 8.381801357566527e-05 -0.00014011359621099087 5.3421240011012125e-05 -8.36913386866443e-05 5.3421240011012125e-05 -0.0002714254237555914" pbc="T T T"
Si      -5.41689239       5.96917893       7.74547589
Si       1.58571548       2.07790893       5.38594560
Si       4.79069950       1.39010565      -0.91238651
Si      -0.72380342       1.61554233       4.67387250
Si       5.91420236      -0.68501900       0.18642229
Si      -1.03412854       3.17160533       2.61034445
Si       2.29456412       5.29047933       3.29022162
Si      -5.31256328       2.23754689       8.87648062
Si      -1.59415091       5.41588748       3.23461456
Si       0.35968217       6.57528788       4.25772394
Si       1.22982443       3.61723381       1.95290392
Si       1.43827669       5.88288186       0.90959286
Si       1.25620344       0.40142784       3.70637017
Si       1.02716222      -1.85892902       4.72947956
Si       0.17404829       1.08825566       7.05450126
Si      -1.79325249      -0.05469713       6.01119020
Si      -2.59907767       2.77035789       0.53942520
Si       0.47511932       4.18699077       4.28271317
Si      -0.95870936      -0.49937742       3.68138094
Si      -5.12197540       4.38075542       9.81639514
Si       2.54047340       3.97998287      -0.00000000
Si       2.34852084      -1.49909055       2.78618394
22
Lattice="9.253448536588925 -0.3113226686967682 -2.3906098520038195 -4.178242107991818 8.26229535361387 2.3906098520035304 -4.552687148967535 -2.6892327801997458 7.967390656003163" Properties=species:S:1:pos:R:3 unique_starting_index=6 config_type=initial n_minim_iter=15 stress="3.368179783539812e-05 -1.493273037600842e-05 2.8679449303608155e-06 -1.493273037600842e-05 1.9819479119965403e-05 -1.8306455218503291e-06 2.8679449303608155e-06 -1.8306455218503291e-06 4.3213547792160206e-05" pbc="T T T"
Si      -5.41968134       5.96469465       7.74889275
Si       1.58558499       2.07792811       5.38700008
Si       4.79348162       1.38519138      -0.91056371
Si      -0.72584571       1.61365575       4.67217984
Si       5.91799442      -0.68750362       0.18978072
Si      -1.03885952       3.16836068       2.60910776
Si       2.29178355       5.28273539       3.29521081
Si      -5.31438090       2.24189730       8.87795437
Si      -1.59706436       5.41016317       3.23407931
Si       0.35783251       6.57139534       4.25709980
Si       1.22704471       3.61223755       1.95254678
Si       1.43590799       5.87850720       0.90924772
Si       1.25726264       0.40200714       3.71029085
Si       1.02700777      -1.86008583       4.73331134
Si       0.17488871       1.08816119       7.05814293
Si      -1.79280285      -0.05542612       6.01484388
Si      -2.60125548       2.77342890       0.53512198
Si       0.46880056       4.18301462       4.28252166
Si      -0.95584443      -0.50288703       3.68486899
Si      -5.12011063       4.38124600       9.82287852
Si       2.53760321       3.97548635      -0.00000000
Si       2.35038069      -1.50027772       2.78839040
22
Lattice="9.250693093528636 -0.31531041930929704 -2.387016936089852 -4.180699121344009 8.258117111544124 2.3870169360895637 -4.547052392450421 -2.6870829317842344 7.967213633535101" Properties=species:S:1:pos:R:3 unique_starting_index=6 config_type=initial n_minim_iter=16 stress="-3.55649530241065e-05 5.6606273601061105e-05 6.267682703334798e-05 5.6606273601061105e-05 1.6983655720312564e-05 -4.000741143028295e-05 6.267682703334798e-05 -4.000741143028295e-05 -7.169746893564266e-05" pbc="T T T"
Si      -5.42041571       5.95901251       7.75259035
Si       1.58250237       2.08030010       5.38815477
Si       4.79582062       1.38240831      -0.90743608
Si      -0.72747467       1.61023901       4.66853382
Si       5.92432309      -0.69113898       0.19204193
Si      -1.04052660       3.16327390       2.60164021
Si       2.28979251       5.27380319       3.29867981
Si      -5.31225530       2.24499702       8.87464971
Si      -1.60121300       5.40660169       3.23205795
Si       0.35714012       6.56655375       4.25868052
Si       1.22466446       3.60832963       1.95076692
Si       1.43465721       5.87323969       0.90915144
Si       1.25879732       0.40149057       3.70853311
Si       1.03115872      -1.86319846       4.73515569
Si       0.17627215       1.08695880       7.05806219
Si      -1.78971066      -0.05708059       6.01644671
Si      -2.60192937       2.77806751       0.52443803
Si       0.45830854       4.17975677       4.27928082
Si      -0.94874740      -0.51162561       3.68793281
Si      -5.11244170       4.38055928       9.82979254
Si       2.53499699       3.97140335      -0.00000000
Si       2.35182035      -1.50119667       2.79009835
22
Lattice="9.248733284468559 -0.3183872657067449 -2.3885388263984098 -4.182664871548736 8.255044057454452 2.3885388263981224 -4.54637243936294 -2.683189137131877 7.967217157853282" Properties=species:S:1:pos:R:3 unique_starting_index=6 config_type=initial n_minim_iter=17 stress="-3.205405405665427e-05 2.0683847270628282e-05 1.5620135864790763e-06 2.0683847270628282e-05 -1.2852871423910267e-05 -9.970530276214894e-07 1.5620135864790763e-06 -9.970530276214894e-07 -4.5256815766647906e-05" pbc="T T T"
Si      -5.42282619       5.95682417       7.75646350
Si       1.57896811       2.08195524       5.38748728
Si       4.79625690       1.38047066      -0.90767979
Si      -0.72976237       1.60903063       4.66712706
Si       5.92603251      -0.69283095       0.19119105
Si      -1.04278249       3.16098687       2.59929248
Si       2.28641399       5.26896327       3.30009009
Si      -5.31351657       2.24847076       8.87489695
Si      -1.60443462       5.40423346       3.23246206
Si       0.35488061       6.56376501       4.26012187
Si       1.22309997       3.60475293       1.95098533
Si       1.43262259       5.87045811       0.90854575
Si       1.25789904       0.40216077       3.70709529
Si       1.03104692      -1.86322391       4.73475509
Si       0.17528567       1.08783600       7.05867140
Si      -1.79161629      -0.05611172       6.01623183
Si      -2.60049086       2.77916854       0.52452557
Si       0.45422094       4.17601888       4.27990449
Si      -0.94973697      -0.51301320       3.68731266
Si      -5.11333445       4.38314838       9.83123041
Si       2.53303421       3.96832840      -0.00000000
Si       2.35118042      -1.50078820       2.78933916
22
Lattice="9.248597232513589 -0.31843491023331383 -2.389188914905624 -4.182650807515625 8.254900591994026 2.3891889149053367 -4.546859415778741 -2.682743805716192 7.967128112341146" Properties=species:S:1:pos:R:3 unique_starting_index=6 config_type=initial n_minim_iter=18 stress="-2.2564982292881595e-06 -6.068379072161651e-06 -4.879879894147967e-06 -6.068379072161651e-06 -7.889882256201203e-06 3.114889057935002e-06 -4.879879894147967e-06 3.114889057935002e-06 1.6170260917749337e-06" pbc="T T T"
Si      -5.42342230       5.95736107       7.75831622
Si       1.57719944       2.08279332       5.38762855
Si       4.79754950       1.38077218      -0.90770736
Si      -0.73085905       1.60846956       4.66611069
Si       5.92691431      -0.69368470       0.19031065
Si      -1.04251742       3.16097408       2.59800080
Si       2.28575783       5.26798654       3.30101742
Si      -5.31427426       2.25021549       8.87483547
Si      -1.60492321       5.40392696       3.23275945
Si       0.35478840       6.56417327       4.26036880
Si       1.22339181       3.60467010       1.95155860
Si       1.43197045       5.87050195       0.90825519
Si       1.25782119       0.40269434       3.70675931
Si       1.03048764      -1.86335080       4.73436866
Si       0.17511301       1.08770826       7.05887292
Si      -1.79230126      -0.05543655       6.01556950
Si      -2.59967057       2.77941822       0.52440425
Si       0.45315901       4.17578894       4.28037254
Si      -0.94998542      -0.51362791       3.68675557
Si      -5.11392624       4.38429942       9.83191277
Si       2.53297321       3.96823284      -0.00000000
Si       2.35086891      -1.50058935       2.78896960
22
Lattice="9.248762373105025 -0.31831677166532985 -2.3894733053683765 -4.182613176524143 8.2551001215524 2.389473305368089 -4.547200518994414 -2.6827496251155494 7.967203748326874" Properties=species:S:1:pos:R:3 unique_starting_index=6 config_type=initial n_minim_iter=19 stress="1.2872168920346752e-05 -1.5027866579816603e-05 -5.250506154553975e-06 -1.5027866579816603e-05 -1.0784664224383066e-06 3.3514644878554394e-06 -5.250506154553975e-06 3.3514644878554394e-06 2.2464647528731552e-05" pbc="T T T"
Si      -5.42350012       5.95792681       7.75964609
Si       1.57600956       2.08326031       5.38771414
Si       4.79866703       1.38119367      -0.90763575
Si      -0.73157241       1.60801363       4.66547112
Si       5.92766289      -0.69445505       0.19001630
Si      -1.04227498       3.16133539       2.59703096
Si       2.28550628       5.26745937       3.30173262
Si      -5.31470355       2.25140079       8.87483950
Si      -1.60519711       5.40391555       3.23272598
Si       0.35510385       6.56460526       4.26059353
Si       1.22366412       3.60499957       1.95211670
Si       1.43147454       5.87076231       0.90820293
Si       1.25773912       0.40315652       3.70661021
Si       1.03025150      -1.86360986       4.73447776
Si       0.17521686       1.08736225       7.05900082
Si      -1.79245817      -0.05505666       6.01508704
Si      -2.59924489       2.78006826       0.52401942
Si       0.45227825       4.17565293       4.28045724
Si      -0.95007908      -0.51448988       3.68674650
Si      -5.11381931       4.38515292       9.83265763
Si       2.53307460       3.96839168      -0.00000000
Si       2.35078093      -1.50053319       2.78886522
22
Lattice="9.24913613240132 -0.318230709332762 -2.389477185113612 -4.1826924723250904 8.255475374683778 2.3894771851133245 -4.547351021019967 -2.68297819538779 7.967472490880317" Properties=species:S:1:pos:R:3 unique_starting_index=6 config_type=initial n_minim_iter=20 stress="1.387156966119668e-05 -1.2868002187041524e-05 -2.4750769461597392e-06 -1.2868002187041524e-05 1.9259747796590966e-06 1.579872920463637e-06 -2.4750769461597392e-06 1.579872920463637e-06 2.208537882278497e-05" pbc="T T T"
Si      -5.42319579       5.95831821       7.76067470
Si       1.57525067       2.08348370       5.38766433
Si       4.79967322       1.38157157      -0.90747734
Si      -0.73202465       1.60760677       4.66509506
Si       5.92840828      -0.69519186       0.19033097
Si      -1.04227788       3.16192290       2.59627497
Si       2.28547160       5.26711062       3.30237743
Si      -5.31493489       2.25224399       8.87494982
Si      -1.60537799       5.40416405       3.23245636
Si       0.35556524       6.56482698       4.26087970
Si       1.22380890       3.60553189       1.95259417
Si       1.43108320       5.87103665       0.90836730
Si       1.25759547       0.40343980       3.70659279
Si       1.03040256      -1.86389787       4.73501612
Si       0.17547996       1.08689421       7.05910518
Si      -1.79218678      -0.05492979       6.01487831
Si      -2.59919952       2.78117137       0.52339324
Si       0.45138098       4.17541824       4.28017070
Si      -0.95006468      -0.51563113       3.68730178
Si      -5.11306763       4.38580518       9.83355643
Si       2.53322183       3.96862234      -0.00000000
Si       2.35089256      -1.50060445       2.78899765
22
Lattice="9.249957215371657 -0.31793482286982244 -2.3892305754021614 -4.182769777257129 8.256344713507612 2.3892305754018746 -4.547515038582347 -2.683693495011185 7.968005395262843" Properties=species:S:1:pos:R:3 unique_starting_index=6 config_type=initial n_minim_iter=21 stress="-2.747379290365714e-06 2.431765713652393e-06 3.928927347384374e-06 2.431765713652393e-06 -4.899280040308325e-07 -2.507884017780856e-06 3.928927347384374e-06 -2.507884017780856e-06 -4.2996070762003615e-06" pbc="T T T"
Si      -5.42206073       5.95867045       7.76182656
Si       1.57461250       2.08363429       5.38714370
Si       4.80123446       1.38215298      -0.90714387
Si      -0.73244162       1.60711496       4.66462480
Si       5.92947062      -0.69612673       0.19163112
Si      -1.04267758       3.16325480       2.59540941
Si       2.28578081       5.26697526       3.30338060
Si      -5.31522885       2.25318960       8.87514926
Si      -1.60531737       5.40524099       3.23181790
Si       0.35634122       6.56485602       4.26140804
Si       1.22398054       3.60670229       1.95300516
Si       1.43090005       5.87151358       0.90885235
Si       1.25713110       0.40344058       3.70659735
Si       1.03118985      -1.86410478       4.73618749
Si       0.17582565       1.08621358       7.05915304
Si      -1.79136144      -0.05499664       6.01500023
Si      -2.59952507       2.78340719       0.52233306
Si       0.45014733       4.17499767       4.27922623
Si      -0.95009079      -0.51764248       3.68877916
Si      -5.11114389       4.38660525       9.83490291
Si       2.53359372       3.96920495      -0.00000000
Si       2.35122109      -1.50081416       2.78938741
