8
Lattice="7.018659974013305 0.2332946020686197 0.2202159752566034 0.6620741884953595 6.99125682342589 0.22021597525647552 0.6620741884952396 0.6227515392506611 6.966946789463682" Properties=species:S:1:pos:R:3 unique_starting_index=114 config_type=initial n_minim_iter=1 energy=-1299.353285634129 free_energy=-1299.353285634129 pbc="T T T"
Si       4.71387390       7.13639791       0.35711060
Si       1.05467101       4.65815001       7.10384141
Si       7.41125680       0.60262867       4.24090257
Si       6.06992212       0.91391387       0.86256957
Si       1.28334617       6.00273050       0.86256957
Si       1.28334617       1.20717904       5.94292883
Si       1.26288691       1.18793491       1.12122884
Si       7.23600301       6.80628904       6.42461487
8
Lattice="7.019029683622428 0.23278753817619846 0.21973733765163206 0.6615906827084442 6.991656849850135 0.2197373376515041 0.6615906827083244 0.6222967503791565 6.967373734635033" Properties=species:S:1:pos:R:3 unique_starting_index=114 config_type=initial n_minim_iter=2 stress="6.370631631884703e-05 -6.331102337425999e-06 -5.976177173700135e-06 -6.331102337425999e-06 6.448210754052158e-05 -5.62123338845869e-06 -5.976177173700135e-06 -5.62123338845869e-06 6.513108210225479e-05" pbc="T T T"
Si       4.71347256       7.13651638       0.35636618
Si       1.05391150       4.65779447       7.10400258
Si       7.41135050       0.60186200       4.24053831
Si       6.07015237       0.91350435       0.86218299
Si       1.28295149       6.00298536       0.86218299
Si       1.28295149       1.20680781       5.94320554
Si       1.26287655       1.18792518       1.12121964
Si       7.23546921       6.80578695       6.42414091
8
Lattice="7.018387229239061 0.23234901676836084 0.21932340000094697 0.661113693661787 6.99104241506173 0.21932340000081899 0.6611136936616672 0.6218480911983982 6.96678417596333" Properties=species:S:1:pos:R:3 unique_starting_index=114 config_type=initial n_minim_iter=3 stress="-3.186405818053094e-05 -4.6090048107569687e-05 -4.3506214046715465e-05 -4.6090048107569687e-05 -2.621634427333632e-05 -4.092224441820047e-05 -4.3506214046715465e-05 -4.092224441820047e-05 -2.149184809568111e-05" pbc="T T T"
Si       4.71244019       7.13564957       0.35571402
Si       1.05314865       4.65680690       7.10317479
Si       7.41042218       0.60115459       4.23960009
Si       6.06953842       0.91306885       0.86177191
Si       1.28247927       6.00239919       0.86177191
Si       1.28247927       1.20636363       5.94264403
Si       1.26277136       1.18782623       1.12112624
Si       7.23405539       6.80445709       6.42288561
8
Lattice="7.018061860481529 0.2329607368975741 0.21990082675512065 0.6617043714096184 6.990680246395111 0.21990082675499267 0.6617043714094988 0.6224036867540851 6.966389332477863" Properties=species:S:1:pos:R:3 unique_starting_index=114 config_type=initial n_minim_iter=4 stress="1.0005034235321561e-05 2.15164663527007e-05 2.031024112872111e-05 2.15164663527007e-05 7.3684814168263e-06 1.910395261627068e-05 2.031024112872111e-05 1.910395261627068e-05 5.162919321516509e-06" pbc="T T T"
Si       4.71235095       7.13560918       0.35659519
Si       1.05401893       4.65666416       7.10308370
Si       7.41037641       0.60202930       4.23946286
Si       6.06944871       0.91372817       0.86239429
Si       1.28313188       6.00226933       0.86239429
Si       1.28313188       1.20697747       5.94247853
Si       1.26335534       1.18837552       1.12164475
Si       7.23463102       6.80499853       6.42339672
8
Lattice="7.018071630536861 0.23251661045318975 0.21948159828939515 0.661261673680447 6.9907171580893115 0.21948159828926714 0.6612616736803274 0.6219872822226068 6.9664503426885505" Properties=species:S:1:pos:R:3 unique_starting_index=114 config_type=initial n_minim_iter=5 stress="-9.993634086609205e-06 -1.1903023897016887e-05 -1.123573367181067e-05 -1.1903023897016887e-05 -8.535079011523099e-06 -1.0568408435623213e-05 -1.123573367181067e-05 -1.0568408435623213e-05 -7.314950302117289e-06" pbc="T T T"
Si       4.71212072       7.13535143       0.35589782
Si       1.05329511       4.65647786       7.10286657
Si       7.41010507       0.60132076       4.23928937
Si       6.06925257       0.91325340       0.86194612
Si       1.28264599       6.00210259       0.86194612
Si       1.28264599       1.20652044       5.94233790
Si       1.26339590       1.18841368       1.12168076
Si       7.23380199       6.80421875       6.42266064
