8
Lattice="3.9508000000000005 -8.227353037809051e-16 -1.0425008933448818e-15 1.1627870765151131 5.417149592386147 -7.181470656463386e-16 1.1133452140908626 2.193264742846748 7.293623245139986" Properties=species:S:1:pos:R:3 unique_starting_index=84 config_type=initial n_minim_iter=1 pbc="T T T"
Si       3.32718080       2.92306646       0.02225212
Si       2.89975149       4.68734788       7.27137113
Si       3.12875962       1.02670090       0.02029669
Si       3.09817267       6.58371344       7.27332656
Si       2.27672535       6.73132565       5.66739106
Si       3.95020694       0.87908869       1.62623219
Si       5.34087907       4.37606515       5.15393967
Si       0.88605322       3.23434919       2.13968358
8
Lattice="3.9845798563342973 -0.002938238583659548 0.007682184163459961 1.1687002845859462 5.444030601941949 -0.0008769381994934442 1.1354154943578736 2.1994453952986506 7.3287702414894484" Properties=species:S:1:pos:R:3 unique_starting_index=84 config_type=initial n_minim_iter=2 pbc="T T T"
Si       3.35629681       2.93645749       0.02731932
Si       2.93239883       4.70408026       7.30825617
Si       3.15413182       1.02861128       0.02466557
Si       3.13456382       6.61192648       7.31090992
Si       2.30149292       6.76092654       5.69306806
Si       3.98720271       0.87961122       1.64250743
Si       5.39334071       4.39151876       5.18576306
Si       0.89535492       3.24901900       2.14981243
8
Lattice="4.363776713337305 -0.040762366558114244 0.09783420039345493 1.2284416648985594 5.750908737140927 -0.015295817508656509 1.3877070608250786 2.262402956654548 7.7116401704748885" Properties=species:S:1:pos:R:3 unique_starting_index=84 config_type=initial n_minim_iter=3 pbc="T T T"
Si       3.68118604       3.08630145       0.08511294
Si       3.29873940       4.88624787       7.70906561
Si       3.43682079       1.04676686       0.07514565
Si       3.54310465       6.92578247       7.71903291
Si       2.57576258       7.09284587       5.96772979
Si       4.40416286       0.87970346       1.82644876
Si       5.98204632       4.55828570       5.53638145
Si       0.99787912       3.41426363       2.25779711
8
Lattice="4.4993319394146765 -0.06656335098382797 0.15348103220463544 1.2329607680604358 5.897947724622501 -0.05348082313485183 1.5143139249394384 2.244275873504613 7.7785909021124855" Properties=species:S:1:pos:R:3 unique_starting_index=84 config_type=initial n_minim_iter=4 pbc="T T T"
Si       3.78529718       3.15504295       0.10350959
Si       3.46130945       4.92061729       7.77508152
Si       3.53047853       1.04714002       0.10017860
Si       3.71612810       7.02852023       7.77841251
Si       2.68282763       7.21407781       5.98031711
Si       4.56377900       0.86158244       1.89827400
Si       6.20985599       4.59619638       5.61993724
Si       1.03675064       3.47946387       2.25865387
8
Lattice="4.673237454789774 -0.09218836460106755 0.2307539662594417 1.2490082910282783 5.994287035955367 -0.12296474911463759 1.6917499131918248 2.154939997562082 7.726747875876782" Properties=species:S:1:pos:R:3 unique_starting_index=84 config_type=initial n_minim_iter=5 pbc="T T T"
Si       3.92918255       3.20069354       0.11996469
Si       3.68481311       4.85634513       7.71457241
Si       3.65141902       1.03595407       0.13243201
Si       3.96257663       7.02108460       7.70210508
Si       2.83953471       7.23320998       5.87310974
Si       4.77446095       0.82382869       1.96142735
Si       6.51873239       4.55765068       5.62695600
Si       1.09526327       3.49938799       2.20758109
8
Lattice="4.806456666828204 -0.11674104111191368 0.2942421016396856 1.2545514864694773 5.974444148658834 -0.21477669519023038 1.8328674064625854 1.994139461845518 7.500535868103381" Properties=species:S:1:pos:R:3 unique_starting_index=84 config_type=initial n_minim_iter=6 pbc="T T T"
Si       4.04378968       3.18473695       0.11451922
Si       3.85008588       4.66710562       7.46548205
Si       3.74029224       1.00433028       0.15167189
Si       4.15358332       6.84751229       7.42832938
Si       2.95349383       7.08854288       5.61186404
Si       4.94038173       0.76329969       1.96813724
Si       6.75739568       4.40945516       5.48754024
Si       1.13647988       3.44238741       2.09246103
8
Lattice="5.062624046345675 -0.14893716726415296 0.35406970299716006 1.2858000656599298 5.8522675181033135 -0.4138848656112559 1.9976310193024795 1.6476509280016718 6.996121905924901" Properties=species:S:1:pos:R:3 unique_starting_index=84 config_type=initial n_minim_iter=7 pbc="T T T"
Si       4.28726773       3.12496819       0.05075783
Si       4.05878740       4.22601309       6.88554892
Si       3.90891286       0.93797373       0.14089406
Si       4.43714227       6.41300755       6.79541269
Si       3.10332381       6.70459771       5.03016371
Si       5.24273132       0.64638357       1.90614304
Si       7.15794709       4.06819333       5.09604619
Si       1.18810804       3.28278795       1.84026055
8
Lattice="5.103714141361342 -0.13609802602153892 0.23189987350756047 1.3154979952453318 5.790343484240358 -0.46357070143361 1.7907985773231199 1.6061827305348035 7.077015807486973" Properties=species:S:1:pos:R:3 unique_starting_index=84 config_type=initial n_minim_iter=8 pbc="T T T"
Si       4.34158358       3.12212899      -0.05450892
Si       3.86842713       4.13829920       6.89985390
Si       3.92503427       0.92451453       0.03458606
Si       4.28497644       6.33591366       6.81075892
Si       2.95946044       6.61485319       5.03016036
Si       5.25055028       0.64557500       1.81518462
Si       7.08594351       4.01740347       5.00598167
Si       1.12406721       3.24302472       1.83936331
8
Lattice="5.0734430576660605 -0.11622417353292593 0.1849073043825444 1.3338387887542056 5.700592570442031 -0.5156531940110178 1.706547377386721 1.5215751810403115 6.95720092245935" Properties=species:S:1:pos:R:3 unique_starting_index=84 config_type=initial n_minim_iter=9 pbc="T T T"
Si       4.33778507       3.09595631      -0.11480908
Si       3.77604416       4.00998726       6.74126411
Si       3.89559718       0.91711212      -0.01267490
Si       4.21823204       6.18883146       6.63912993
Si       2.90030254       6.46737692       4.88285427
Si       5.21352668       0.63856666       1.74360076
Si       7.01379312       3.93060301       4.85050037
Si       1.10003610       3.17534057       1.77595467
8
Lattice="5.098659058175735 -0.10479872262307195 0.14827876785922192 1.3569263194449972 5.699084116454156 -0.5567924193317965 1.6523756670282344 1.4819477185056076 6.945622123687019" Properties=species:S:1:pos:R:3 unique_starting_index=84 config_type=initial n_minim_iter=10 pbc="T T T"
Si       4.37434676       3.11096537      -0.16130152
Si       3.73361429       3.96526774       6.69841000
Si       3.90836459       0.91979862      -0.04975674
Si       4.19959645       6.15643450       6.58686521
Si       2.87430620       6.43675758       4.82921270
Si       5.23365485       0.63947553       1.70789577
Si       7.01968088       3.91305391       4.78635237
Si       1.08828016       3.16317920       1.75075611
8
Lattice="5.10857151055165 -0.08778274150972411 0.09945232070407993 1.3831752276842193 5.664117582157232 -0.6120834327032595 1.574476209426013 1.415462918306994 6.896780937130603" Properties=species:S:1:pos:R:3 unique_starting_index=84 config_type=initial n_minim_iter=11 pbc="T T T"
Si       4.40341425       3.11225061      -0.22427328
Si       3.66280869       3.87954715       6.60842310
Si       3.90781534       0.91984732      -0.09848552
Si       4.15840761       6.07195044       6.48263535
Si       2.82960218       6.35484763       4.73211415
Si       5.23662077       0.63695013       1.65203567
Si       6.99690721       3.86490992       4.67738473
Si       1.06931574       3.12688784       1.70676509
8
Lattice="5.218630419224639 0.009807330135760753 -0.16721045798822556 1.5493782988332472 5.54380500082617 -0.9199046511057367 1.1673780473695294 1.0738442442169065 6.707451174926368" Properties=species:S:1:pos:R:3 unique_starting_index=84 config_type=initial n_minim_iter=12 pbc="T T T"
Si       4.61536228       3.15579620      -0.57617443
Si       3.32002448       3.47166038       6.19651049
Si       3.94559722       0.93768999      -0.35829359
Si       3.98978954       5.68976659       5.97862966
Si       2.62443642       5.99200757       4.25639536
Si       5.31095035       0.63544901       1.36394070
Si       6.95178315       3.65942758       4.13184147
Si       0.98360362       2.96802900       1.48849459
8
Lattice="5.399746657923877 -0.04083955597158422 -0.16287565240554497 1.5332392544053997 5.258774957264052 -1.031948270473609 1.1983032540812644 0.7976329222021471 6.51445269208005" Properties=species:S:1:pos:R:3 unique_starting_index=84 config_type=initial n_minim_iter=13 pbc="T T T"
Si       4.77232474       2.96655430      -0.64060447
Si       3.35896443       3.04901402       5.96023324
Si       4.00537483       0.84418935      -0.38184017
Si       4.12591434       5.17137897       5.70146894
Si       2.58285675       5.52576615       3.96852368
Si       5.54843242       0.48980217       1.35110509
Si       7.15782405       3.26480851       3.95944517
Si       0.97346512       2.75075981       1.36018359
8
Lattice="5.425423751605004 0.02882736928685192 -0.2920969193932643 1.636320440104859 5.527072790120371 -1.069781823997819 1.0056572693706864 0.9178577169902036 6.496841608350256" Properties=species:S:1:pos:R:3 unique_starting_index=84 config_type=initial n_minim_iter=14 pbc="T T T"
Si       4.84687829       3.17460109      -0.75386944
Si       3.22052317       3.29915679       5.88883231
Si       4.03364712       0.93094578      -0.47261082
Si       4.03375435       5.54281210       5.60757369
Si       2.53671012       5.87443465       3.90806740
Si       5.53069134       0.59932323       1.22689546
Si       7.10134151       3.55786557       3.79580356
Si       0.96605995       2.91589230       1.33915930
8
Lattice="5.3845567833068575 0.022398807829185203 -0.29194429816920814 1.6154780634536834 5.424145247884312 -1.0528155026606691 0.9908538323316078 0.897922341948194 6.439912803259659" Properties=species:S:1:pos:R:3 unique_starting_index=84 config_type=initial n_minim_iter=15 pbc="T T T"
Si       4.80397086       3.11118122      -0.74513181
Si       3.18691782       3.23328518       5.84028481
Si       3.99909770       0.90920172      -0.46888856
Si       3.99179098       5.43526468       5.56404156
Si       2.49910070       5.76339060       3.87832150
Si       5.49178798       0.58107580       1.21683151
Si       7.03698303       3.48485340       3.76400306
Si       0.95390565       2.85961300       1.33114994
8
Lattice="5.40102176429458 0.02172354687032613 -0.2979013717925047 1.6193980992640378 5.420535932977382 -1.052458163779689 0.9841214062603327 0.8991929074103278 6.431028744952529" Properties=species:S:1:pos:R:3 unique_starting_index=84 config_type=initial n_minim_iter=16 pbc="T T T"
Si       4.81680152       3.10933907      -0.74987368
Si       3.18773975       3.23211332       5.83054288
Si       4.00759643       0.90693736      -0.47230154
Si       3.99694484       5.43451503       5.55297075
Si       2.49424671       5.76253948       3.86810335
Si       5.51029456       0.57891291       1.21256586
Si       7.04936268       3.48365349       3.75147843
Si       0.95517859       2.85779890       1.32919078
8
Lattice="5.410497870971512 0.02253553485790713 -0.3049408906368911 1.6233004367084958 5.414252186341587 -1.0519674171312319 0.9742468199395213 0.9002311086257105 6.411057840178256" Properties=species:S:1:pos:R:3 unique_starting_index=84 config_type=initial n_minim_iter=17 pbc="T T T"
Si       4.82456425       3.10701070      -0.75548632
Si       3.18348088       3.23000813       5.80963586
Si       4.01132641       0.90508884      -0.47617569
Si       3.99671872       5.43192999       5.53032522
Si       2.48634315       5.75917835       3.84941905
Si       5.52170198       0.57784048       1.20473048
Si       7.05214508       3.48246333       3.73002017
Si       0.95590005       2.85455550       1.32412937
8
Lattice="5.4284285398853935 0.02399486810813773 -0.3182228478087915 1.6305787035425485 5.406520736488209 -1.0520723467008377 0.9555898737556049 0.9024601122978555 6.371123471178513" Properties=species:S:1:pos:R:3 unique_starting_index=84 config_type=initial n_minim_iter=18 pbc="T T T"
Si       4.83911213       3.10482258      -0.76668513
Si       3.17548498       3.22815314       5.76751341
Si       4.01873896       0.90209348      -0.48351537
Si       3.99585815       5.43088224       5.48434365
Si       2.47122696       5.75694552       3.81151619
Si       5.54337015       0.57603020       1.18931208
Si       7.05722955       3.48255567       3.68723921
Si       0.95736757       2.85042005       1.31358907
8
Lattice="5.441198553642904 0.02403955307702389 -0.3280018700086092 1.6343984038880828 5.40186480187142 -1.0527661836544027 0.9411601218158103 0.9035232344252392 6.337629425606913" Properties=species:S:1:pos:R:3 unique_starting_index=84 config_type=initial n_minim_iter=19 pbc="T T T"
Si       4.84827682       3.10293887      -0.77533960
Si       3.16848026       3.22648872       5.73220097
Si       4.02393191       0.89914835      -0.48882369
Si       3.99282517       5.43027924       5.44568506
Si       2.45761063       5.75591595       3.77971839
Si       5.55914645       0.57351164       1.17714298
Si       7.05896275       3.48192424       3.65218749
Si       0.95779433       2.84750335       1.30467388
8
Lattice="5.443014032922065 0.02393290772254949 -0.3293704460664452 1.6347865030085083 5.401391285198262 -1.0529513310234833 0.9390859787365894 0.9036072144739014 6.33282314871826" Properties=species:S:1:pos:R:3 unique_starting_index=84 config_type=initial n_minim_iter=20 pbc="T T T"
Si       4.84944231       3.10268466      -0.77660080
Si       3.16744420       3.22624675       5.72710217
Si       4.02467586       0.89867376      -0.48956734
Si       3.99221065       5.43025764       5.44006871
Si       2.45548011       5.75589488       3.77507375
Si       5.56140641       0.57303653       1.17542762
Si       7.05909907       3.48179496       3.64711038
Si       0.95778744       2.84713645       1.30339099
8
Lattice="5.4959185422010535 0.020349359622570614 -0.36862995474347743 1.6454436012037803 5.387955547143777 -1.0586728189760661 0.8795277240610868 0.9054384524418265 6.1954339285068745" Properties=species:S:1:pos:R:3 unique_starting_index=84 config_type=initial n_minim_iter=21 pbc="T T T"
Si       4.88277149       3.09508627      -0.81290016
Si       3.13811837       3.21865709       5.58103132
Si       4.04613780       0.88458966      -0.51080393
Si       3.97475206       5.42915370       5.27893509
Si       2.39325894       5.75512139       3.64211367
Si       5.62763093       0.55862197       1.12601748
Si       7.06323374       3.47739938       3.50155740
Si       0.95765613       2.83634398       1.26657375
8
Lattice="5.549049981130301 0.009897698032791868 -0.3956064565095578 1.646750257127327 5.416951288064445 -1.0849840712219723 0.8388964423021924 0.8907427651754221 6.0923659096656575" Properties=species:S:1:pos:R:3 unique_starting_index=84 config_type=initial n_minim_iter=22 pbc="T T T"
Si       4.90485512       3.10517680      -0.85111934
Si       3.12984156       3.21241495       5.46289472
Si       4.06841937       0.87153838      -0.52646533
Si       3.96627731       5.44605337       5.13824071
Si       2.33327578       5.78187976       3.51582141
Si       5.70142090       0.53571199       1.09595397
Si       7.07472493       3.47998638       3.37763744
Si       0.95997175       2.83760537       1.23413794
8
Lattice="5.535305739009861 0.006870501229218015 -0.4089251635286384 1.6385543461612735 5.398628708803091 -1.083694155189557 0.8087549111402476 0.8898465741438573 6.042789871532667" Properties=species:S:1:pos:R:3 unique_starting_index=84 config_type=initial n_minim_iter=23 pbc="T T T"
Si       4.88748908       3.09195261      -0.86024554
Si       3.09512591       3.20339318       5.41041609
Si       4.05663156       0.86464084      -0.53348859
Si       3.92598344       5.43070494       5.08365914
Si       2.29784326       5.76498774       3.47620757
Si       5.68477173       0.53035804       1.07396298
Si       7.03354715       3.46873359       3.32767411
Si       0.94906785       2.82661219       1.22249644
8
Lattice="5.54854594762086 0.0036804219077198994 -0.41183357918410085 1.638077077397251 5.408603452969311 -1.0867927306323102 0.8053458158574416 0.8903468556700715 6.033108158044036" Properties=species:S:1:pos:R:3 unique_starting_index=84 config_type=initial n_minim_iter=24 pbc="T T T"
Si       4.89442308       3.09520267      -0.86433130
Si       3.09754576       3.20742806       5.39881315
Si       4.06404861       0.86268055      -0.53502638
Si       3.92792023       5.43995018       5.06950823
Si       2.29157066       5.77579346       3.46322866
Si       5.70039818       0.52683727       1.07125318
Si       7.04278583       3.47252077       3.31476361
Si       0.94918302       2.83010996       1.21971824
8
Lattice="5.553498609893104 0.00176368317244704 -0.415161283712598 1.6369065881864604 5.411154272425026 -1.0888638845010654 0.7995341028490608 0.8895979438416194 6.015775377690946" Properties=species:S:1:pos:R:3 unique_starting_index=84 config_type=initial n_minim_iter=25 pbc="T T T"
Si       4.89514734       3.09504370      -0.86814876
Si       3.09479196       3.20747220       5.37989897
Si       4.06586551       0.86049812      -0.53662392
Si       3.92407379       5.44201778       5.04837413
Si       2.28277191       5.77856675       3.44571680
Si       5.70716739       0.52394915       1.06603341
Si       7.04168458       3.47284646       3.29659644
Si       0.94825472       2.82966944       1.21515376
8
Lattice="5.579445423952918 -0.007233363598909339 -0.43116331911442496 1.6322068493526443 5.425893242703495 -1.09910171538811 0.7723097529464376 0.8866589947295035 5.93419228011693" Properties=species:S:1:pos:R:3 unique_starting_index=84 config_type=initial n_minim_iter=26 pbc="T T T"
Si       4.90035246       3.09576181      -0.88650899
Si       3.08360956       3.20955706       5.29043624
Si       4.07589024       0.85046819      -0.54429109
Si       3.90807179       5.45485068       4.94821833
Si       2.24178107       5.79476989       3.36259581
Si       5.74218096       0.51054898       1.04133144
Si       7.03959576       3.47673656       3.21022600
Si       0.94436627       2.82858231       1.19370124
8
Lattice="5.650727755417763 -0.01600846979631831 -0.46169745813275015 1.6411544323360283 5.47808904184582 -1.1135701973789172 0.7311563676659186 0.8989839123870497 5.761985466015814" Properties=species:S:1:pos:R:3 unique_starting_index=84 config_type=initial n_minim_iter=27 pbc="T T T"
Si       4.92922663       3.11486449      -0.91785059
Si       3.09381192       3.24619999       5.10456840
Si       4.10612316       0.83674863      -0.55530928
Si       3.91691540       5.52431586       4.74202709
Si       2.18062537       5.86364459       3.19018252
Si       5.84241318       0.49741990       0.99653529
Si       7.07320911       3.52509646       3.03224241
Si       0.94982944       2.83596802       1.15447540
8
Lattice="5.617233262641208 -0.011776740451434262 -0.48063629161825927 1.6370987847610345 5.444744092774918 -1.1002110841653787 0.6891035311255911 0.9116631259458338 5.66487467369582" Properties=species:S:1:pos:R:3 unique_starting_index=84 config_type=initial n_minim_iter=28 pbc="T T T"
Si       4.89678245       3.09462638      -0.92336462
Si       3.04665312       3.25000409       5.00739192
Si       4.07807285       0.82744189      -0.56072981
Si       3.86536273       5.51718859       4.64475711
Si       2.13395380       5.84331304       3.11959939
Si       5.80948178       0.50131744       0.96442791
Si       7.00532789       3.53026286       2.94592074
Si       0.93810769       2.81436762       1.13810656
8
Lattice="5.65961918095405 -0.014649511002891375 -0.4762691598004254 1.645634668687975 5.485671725908487 -1.1049609405598266 0.7075154039297802 0.9196407106110398 5.694846105557271" Properties=species:S:1:pos:R:3 unique_starting_index=84 config_type=initial n_minim_iter=29 pbc="T T T"
Si       4.92988367       3.11534591      -0.92280046
Si       3.08288558       3.27531702       5.03641647
Si       4.10616597       0.83009254      -0.55789485
Si       3.90660328       5.56057038       4.67151086
Si       2.15377050       5.88885447       3.13430894
Si       5.85899875       0.50180846       0.97930706
Si       7.06442660       3.55672411       2.96774071
Si       0.94834265       2.83393882       1.14587530
8
Lattice="5.659243039058828 -0.01335380656401202 -0.47643475837568616 1.6473005722614862 5.487111123237566 -1.104782100653947 0.7078229956747928 0.9207406308311922 5.685500052223603" Properties=species:S:1:pos:R:3 unique_starting_index=84 config_type=initial n_minim_iter=30 pbc="T T T"
Si       4.92928945       3.11621529      -0.92276630
Si       3.08507716       3.27828265       5.02704949
Si       4.10514756       0.82973846      -0.55704985
Si       3.90921905       5.56475949       4.66133304
Si       2.15340875       5.89148883       3.12522920
Si       5.86095786       0.50300912       0.97905399
Si       7.06449284       3.56153816       2.96001976
Si       0.94987376       2.83295979       1.14426344
8
Lattice="5.661016712859335 -0.011967148773424117 -0.478035419430972 1.6497239137766848 5.49169560628364 -1.1045163146026524 0.7061376155490511 0.9238144396626439 5.673131995750846" Properties=species:S:1:pos:R:3 unique_starting_index=84 config_type=initial n_minim_iter=31 pbc="T T T"
Si       4.92977393       3.11834409      -0.92358120
Si       3.08710431       3.28519881       5.01416146
Si       4.10507704       0.82894995      -0.55656629
Si       3.91180120       5.57459295       4.64714655
Si       2.15107332       5.89881922       3.11242945
Si       5.86580492       0.50472368       0.97815082
Si       7.06541617       3.57079127       2.94808238
Si       0.95146207       2.83275163       1.14249788
8
Lattice="5.6680776570501195 -0.006725910843117386 -0.4898461343054631 1.6589886056291712 5.514374029584937 -1.1025853922109496 0.6892331370213802 0.9411287697531027 5.615034036310514" Properties=species:S:1:pos:R:3 unique_starting_index=84 config_type=initial n_minim_iter=32 pbc="T T T"
Si       4.92909197       3.12714397      -0.92969991
Si       3.08720743       3.32163292       4.95230242
Si       4.10327349       0.82336365      -0.55647651
Si       3.91302591       5.62541324       4.57907902
Si       2.13087928       5.93643338       3.05149902
Si       5.88542012       0.51234350       0.97110349
Si       7.06109496       3.61710653       2.88753570
Si       0.95520444       2.83167036       1.13506681
8
Lattice="5.640940932490541 -0.0010603708253386864 -0.5010496596178761 1.6587701296701551 5.5697078953290085 -1.1157345974943682 0.6640481603355315 0.9511890409033646 5.56694377768991" Properties=species:S:1:pos:R:3 unique_starting_index=84 config_type=initial n_minim_iter=33 pbc="T T T"
Si       4.88786426       3.14258648      -0.94167153
Si       3.07589497       3.37725008       4.89183105
Si       4.06997741       0.80627061      -0.54944258
Si       3.89378182       5.71356595       4.49960210
Si       2.08110582       6.00162922       2.96056351
Si       5.88265340       0.51820735       0.98959601
Si       7.00678392       3.69803400       2.81821007
Si       0.95697530       2.82180257       1.13194945
