16
Lattice="3.675437735395786 -0.20175249084390454 1.1242248512547108 0.7087804111068445 8.596129776455653 0.2523452098776955 2.8597855530530034 0.513605619685734 12.443428165983557" Properties=species:S:1:pos:R:3 unique_starting_index=92 config_type=initial n_minim_iter=1 energy=-2605.275080444256 free_energy=-2605.275080444256 pbc="T T T"
Si       2.91150705       8.51701168       5.50782643
Si       0.18691034       0.16476177       0.08430494
Si       2.44421019       7.63255316       7.63262154
Si       2.45216684       4.66254362       5.31132338
Si       6.57827392       5.80740631      12.25844240
Si       2.86586776       3.63165389      10.76463460
Si       4.12981063       3.24188092       6.14580028
Si       2.94725964       6.61354662       4.09779707
Si       3.93206412       7.11413992       9.34450000
Si       4.34786891       2.65015675      12.33323817
Si       3.38737864       3.86233314       8.42553346
Si       4.53366805       6.94485386      12.52705903
Si       4.28806795       1.05764864       5.26323967
Si       1.74991664       5.30620827       7.48175015
Si       5.15420218       6.83762758       3.42680773
Si       1.65946671       0.82273643       1.98931296
16
Lattice="3.674686511405053 -0.2015402089274199 1.1242326148268071 0.7095035692565409 8.597844587951966 0.2514400118599801 2.8594928057125 0.5126899234847149 12.442492877776004" Properties=species:S:1:pos:R:3 unique_starting_index=92 config_type=initial n_minim_iter=2 stress="-0.00015397975477887636 2.2214541957972438e-05 -4.3593344590030725e-05 2.2214541957972438e-05 4.000595893048382e-05 -3.53061236701655e-05 -4.3593344590030725e-05 -3.53061236701655e-05 -4.061653012940466e-05" pbc="T T T"
Si       2.91188671       8.51839589       5.50664224
Si       0.18739763       0.16486939       0.08391429
Si       2.44434304       7.63355911       7.63112933
Si       2.45237125       4.66322982       5.31061758
Si       6.57825933       5.80756649      12.25732681
Si       2.86587074       3.63173869      10.76389759
Si       4.12966398       3.24221042       6.14463511
Si       2.94740689       6.61505222       4.09674283
Si       3.93171946       7.11469658       9.34307457
Si       4.34710101       2.64963695      12.33196460
Si       3.38728652       3.86303072       8.42473079
Si       4.53369113       6.94516687      12.52546921
Si       4.28715180       1.05721051       5.26333967
Si       1.75009097       5.30655997       7.48093964
Si       5.15396380       6.83919169       3.42586071
Si       1.65916794       0.82308518       1.98862965
