20
Lattice="5.267422869575131 2.730962160744133e-13 5.911472193821805e-14 -2.633711434787802 4.561722017527053 -4.055730168121468e-14 -2.7027024408118386e-13 5.807139989227534e-14 24.082455570487596" Properties=species:S:1:pos:R:3 unique_starting_index=168 config_type=initial n_minim_iter=1 energy=-3252.360876462908 free_energy=-3252.360876462908 pbc="T T T"
Si       1.25051128       0.79208297      22.46968183
Si       3.95620325       0.68693305      22.46968183
Si       2.69441977       3.08270599      22.46968183
Si       4.07488869       1.59275396      16.60697940
Si       1.85061313       2.73258014      16.60697940
Si       1.97563249       0.23638791      16.60697940
Si       2.61991997       3.10205681      11.18256842
Si       1.27100288       0.71788884      11.18256842
Si       4.01021145       0.74177636      11.18256842
Si       4.05025749       1.24223800      20.14728913
Si       2.16648446       2.88650687      20.14728913
Si       1.68439236       0.43297714      20.14728913
Si      -1.46571247       3.39149791      18.41672785
Si       0.42944432       1.59662882      18.41672785
Si       1.03626815       4.13531729      18.41672785
Si       3.30049827       2.78354111      13.47217712
Si       1.20655642       1.46654478      13.47217712
Si       3.39407962       0.31163611      13.47217712
Si       0.00000000      -0.00000000      15.01510628
Si       0.00000000       3.04114801      14.86029514
20
Lattice="5.275641628415215 2.3713132475452555e-13 5.920695862692513e-14 -2.6378208142078146 4.5688396714701645 -4.062058323084047e-14 -2.7062613852422966e-13 5.814786886721484e-14 24.114167578376485" Properties=species:S:1:pos:R:3 unique_starting_index=168 config_type=initial n_minim_iter=2 stress="0.0008709550732397545 7.013658868667742e-20 6.279417887580704e-17 7.013658868667742e-20 0.000870955073239999 1.6834882414620623e-17 6.279417887580704e-17 1.6834882414620623e-17 0.0009338833279158997" pbc="T T T"
Si       1.25274472       0.79344066      22.49913337
Si       3.96212951       0.68818842      22.49913337
Si       2.69858822       3.08721059      22.49913337
Si       4.08188371       1.59473101      16.62820543
Si       1.85362220       2.73764948      16.62820543
Si       1.97795653       0.23645917      16.62820543
Si       2.62430637       3.10642542      11.19770402
Si       1.27324512       0.71950327      11.19770402
Si       4.01591096       0.74291098      11.19770402
Si       4.05632765       1.24463244      20.17430816
Si       2.16959449       2.89056656      20.17430816
Si       1.68754031       0.43364066      20.17430816
Si      -1.46784938       3.39650612      18.44119741
Si       0.43028492       1.59939175      18.44119741
Si       1.03756447       4.14178146      18.44119741
Si       3.30489247       2.78811174      13.48938824
Si       1.20861980       1.46806496      13.48938824
Si       3.39995018       0.31266297      13.48938824
Si       0.00000000      -0.00000000      15.03517097
Si       0.00000000       3.04589311      14.88014282
20
Lattice="5.2779709650670625 -1.5251649323055308e-13 5.923310008013457e-14 -2.6389854825334003 4.570856936184825 -4.063851830300532e-14 -2.6976913758009867e-13 5.79637300445934e-14 24.037804428481614" Properties=species:S:1:pos:R:3 unique_starting_index=168 config_type=initial n_minim_iter=3 stress="0.0008564465479582726 -7.986970760373588e-18 4.826213464228508e-17 -7.986970760373588e-18 0.0008564465479584686 -5.5454161743998796e-17 4.826213464228508e-17 -5.5454161743998796e-17 -0.002141899168361612" pbc="T T T"
Si       1.25801691       0.79551345      22.42479840
Si       3.96002765       0.69171787      22.42479840
Si       2.69891189       3.08362560      22.42479840
Si       4.09454850       1.58639772      16.56457583
Si       1.85683599       2.75278415      16.56457583
Si       1.96557197       0.23167506      16.56457583
Si       2.63087099       3.09987984      11.17002446
Si       1.27796078       0.72846119      11.17002446
Si       4.00812468       0.74251590      11.17002446
Si       4.05339984       1.25290857      20.11859079
Si       2.16622040       2.88389294      20.11859079
Si       1.69733622       0.43405542      20.11859079
Si      -1.46580443       3.39300938      18.38683417
Si       0.43345539       1.60492837      18.38683417
Si       1.03234905       4.14377612      18.38683417
Si       3.29272926       2.79310598      13.43771593
Si       1.21270560       1.45503419      13.43771593
Si       3.41152159       0.32271676      13.43771593
Si       0.00000000      -0.00000000      14.99198158
Si       0.00000000       3.04723796      14.83768450
20
Lattice="5.264200383924414 -2.6440645071453577e-13 5.9078556939147e-14 -2.6321001919619778 4.558931263090473 -4.053248967618675e-14 -2.710943558794682e-13 5.824847201487242e-14 24.155888129942202" Properties=species:S:1:pos:R:3 unique_starting_index=168 config_type=initial n_minim_iter=4 stress="-0.000206032982711359 -9.556056524176222e-18 3.628569049438552e-17 -9.556056524176222e-18 -0.00020603298271106482 -6.194965830881969e-17 3.628569049438552e-17 -6.194965830881969e-17 -7.182335399501432e-06" pbc="T T T"
Si       1.25575761       0.79384377      22.53443988
Si       3.94883271       0.69059610      22.53443988
Si       2.69171027       3.07449139      22.53443988
Si       4.08658695       1.57956140      16.64294208
Si       1.85296661       2.74930741      16.64294208
Si       1.95674702       0.23006245      16.64294208
Si       2.62543738       3.09005266      11.22646696
Si       1.27541759       0.72866913      11.22646696
Si       3.99544561       0.74020946      11.22646696
Si       4.04184893       1.25198216      20.21918694
Si       2.15902757       2.87435277      20.21918694
Si       1.69542408       0.43259633      20.21918694
Si      -1.46120507       3.38267359      18.47850004
Si       0.43322147       1.60215375      18.47850004
Si       1.02798361       4.13303518      18.47850004
Si       3.28053439       2.78699745      13.50196065
Si       1.21032260       1.44752739      13.50196065
Si       3.40544359       0.32440641      13.50196065
Si       0.00000000      -0.00000000      15.06670892
Si       0.00000000       3.03928751      14.91133250
20
Lattice="5.26749959044184 -4.2375650332908693e-13 5.911558295371343e-14 -2.6337497952205524 4.561788459746972 -4.055789240487243e-14 -2.7124000375691077e-13 5.827976652960226e-14 24.16886609778829" Properties=species:S:1:pos:R:3 unique_starting_index=168 config_type=initial n_minim_iter=5 stress="0.0005285515968069433 -2.157206953878131e-17 4.279958289052748e-17 -2.157206953878131e-17 0.0005285515968069433 -8.488548624665561e-17 4.279958289052748e-17 -8.488548624665561e-17 0.0007095257010906895" pbc="T T T"
Si       1.25526145       0.79320438      22.54574798
Si       3.95293372       0.69048611      22.54574798
Si       2.69305422       3.07809796      22.54574798
Si       4.09216212       1.57132356      16.64784090
Si       1.86061241       2.75825457      16.64784090
Si       1.94847486       0.23221032      16.64784090
Si       2.63109400       3.09442002      11.23127436
Si       1.27210624       0.73138423      11.23127436
Si       3.99804915       0.73598420      11.23127436
Si       4.05068963       1.25892534      20.22890130
Si       2.15189345       2.87853745      20.22890130
Si       1.69866631       0.42432566      20.22890130
Si      -1.46171908       3.38111636      18.49425962
Si       0.43647668       1.60534441      18.49425962
Si       1.02524241       4.13711614      18.49425962
Si       3.27621677       2.79654654      13.51326455
Si       1.20751086       1.43901367      13.51326455
Si       3.41752176       0.32622824      13.51326455
Si       0.00000000      -0.00000000      15.07259896
Si       0.00000000       3.04119230      14.91354589
20
Lattice="5.265292454766891 -5.439404753920212e-13 5.909081292576363e-14 -2.6326462273829745 4.559877024182926 -4.054089823720399e-14 -2.710790134345725e-13 5.82451754727181e-14 24.154521039943816" Properties=species:S:1:pos:R:3 unique_starting_index=168 config_type=initial n_minim_iter=6 stress="0.00011339593533557388 1.3227413644383723e-17 1.525944312235318e-19 1.3227413644383723e-17 0.00011339593533542686 -3.86739960923287e-17 1.525944312235318e-19 -3.86739960923287e-17 0.00015172709114398653" pbc="T T T"
Si       1.25443826       0.79234139      22.53143787
Si       3.95188556       0.69020470      22.53143787
Si       2.69161488       3.07733093      22.53143787
Si       4.09251460       1.56421159      16.63595773
Si       1.86438818       2.76211581      16.63595773
Si       1.94103591       0.23354961      16.63595773
Si       2.63305680       3.09386694      11.22380555
Si       1.26939669       0.73336060      11.22380555
Si       3.99548520       0.73264947      11.22380555
Si       4.05205240       1.26311329      20.21696301
Si       2.14537806       2.87762367      20.21696301
Si       1.70050822       0.41914006      20.21696301
Si      -1.46079909       3.37662645      18.48619934
Si       0.43880149       1.60647467      18.48619934
Si       1.02199761       4.13665292      18.48619934
Si       3.26987492       2.79949926      13.50755181
Si       1.20591752       1.43204511      13.50755181
Si       3.42214625       0.32833265      13.50755181
Si       0.00000000      -0.00000000      15.06306608
Si       0.00000000       3.03991801      14.90060205
20
Lattice="5.262920643927452 -7.610889538415634e-13 5.906419479736719e-14 -2.631460321963066 4.557822975743107 -4.052263612874266e-14 -2.70736126137296e-13 5.81715012677543e-14 24.12396803500456" Properties=species:S:1:pos:R:3 unique_starting_index=168 config_type=initial n_minim_iter=7 stress="-0.0005346800404844682 -2.68794383201186e-17 2.6335784264510975e-17 -2.68794383201186e-17 -0.0005346800404846646 -9.449925920507509e-17 2.6335784264510975e-17 -9.449925920507509e-17 -0.0006976422320343163" pbc="T T T"
Si       1.25389874       0.79126781      22.50069525
Si       3.95071325       0.69027425      22.50069525
Si       2.68976899       3.07628090      22.50069525
Si       4.09244040       1.55182764      16.61569746
Si       1.87277829       2.76824353      16.61569746
Si       1.92916228       0.23775180      16.61569746
Si       2.63815844       3.09296287      11.20632089
Si       1.26525701       0.73823079      11.20632089
Si       3.99096553       0.72662931      11.20632089
Si       4.05409197       1.27204905      20.19197897
Si       2.13424787       2.87492211      20.19197897
Si       1.70604113       0.41085181      20.19197897
Si      -1.46026709       3.36825744      18.46488694
Si       0.44459735       1.60906585      18.46488694
Si       1.01566974       4.13832265      18.46488694
Si       3.25943714       2.80223109      13.49556182
Si       1.20639876       1.42163981      13.49556182
Si       3.42854507       0.33395206      13.49556182
Si       0.00000000      -0.00000000      15.04483009
Si       0.00000000       3.03854865      14.87191613
20
Lattice="5.267573409649407 -8.641701680970551e-13 5.911641140474973e-14 -2.633786704823954 4.561852389056226 -4.055846078677849e-14 -2.707244124846236e-13 5.816898442313897e-14 24.12292428887923" Properties=species:S:1:pos:R:3 unique_starting_index=168 config_type=initial n_minim_iter=8 stress="5.290508071910336e-06 2.2553719790127602e-17 4.032916808680582e-18 2.2553719790127602e-17 5.290508071321967e-06 -1.0391088682298324e-16 4.032916808680582e-18 -1.0391088682298324e-16 -6.056892074608517e-06" pbc="T T T"
Si       1.25625413       0.79233986      22.49792978
Si       3.95325990       0.69177806      22.49792978
Si       2.69184609       3.07773447      22.49792978
Si       4.09312116       1.54876537      16.62382534
Si       1.87974267       2.77036422      16.62382534
Si       1.92849629       0.24272279      16.62382534
Si       2.64502288       3.09373028      11.20156252
Si       1.26581295       0.74379187      11.20156252
Si       3.99052428       0.72433023      11.20156252
Si       4.05597155       1.27881910      20.19173858
Si       2.13209781       2.87316485      20.19173858
Si       1.71329076       0.40986844      20.19173858
Si      -1.46341051       3.36627376      18.45918217
Si       0.45021337       1.61136483      18.45918217
Si       1.01319715       4.14606618      18.45918217
Si       3.25873581       2.79934009      13.49743970
Si       1.21390588       1.42247795      13.49743970
Si       3.42871843       0.34003435      13.49743970
Si       0.00000000      -0.00000000      15.04914575
Si       0.00000000       3.04123492      14.86339479
20
Lattice="5.267591568549757 -1.0256169817782565e-12 5.911661519669384e-14 -2.633795784273989 4.561868115125316 -4.0558600603916845e-14 -2.707945821603286e-13 5.818406137440348e-14 24.12917676444606" Properties=species:S:1:pos:R:3 unique_starting_index=168 config_type=initial n_minim_iter=9 stress="0.00013460349065545028 4.042523637690879e-17 6.153402570950881e-17 4.042523637690879e-17 0.00013460349065535224 -1.0278203710203699e-16 6.153402570950881e-17 -1.0278203710203699e-16 0.00012711530818353625" pbc="T T T"
Si       1.25646619       0.79244343      22.50299525
Si       3.95308233       0.69190992      22.50299525
Si       2.69183884       3.07751476      22.50299525
Si       4.09372869       1.54269176      16.63082643
Si       1.88471697       2.77392715      16.63082643
Si       1.92294170       0.24524919      16.63082643
Si       2.65172662       3.09306039      11.20323263
Si       1.26305939       0.74993242      11.20323263
Si       3.98660135       0.71887530      11.20323263
Si       4.05896230       1.28468384      20.19460932
Si       2.12554158       2.87282254      20.19460932
Si       1.71688348       0.40436173      20.19460932
Si      -1.46596619       3.36311503      18.46628752
Si       0.45423583       1.61074663      18.46628752
Si       1.01173037       4.14987456      18.46628752
Si       3.25417638       2.80091640      13.50030364
Si       1.21483863       1.41774121      13.50030364
Si       3.43237236       0.34321050      13.50030364
Si       0.00000000      -0.00000000      15.05748385
Si       0.00000000       3.04124541      14.86275931
20
Lattice="5.265888733304662 -9.924047734519614e-13 5.909750478264256e-14 -2.63294436665147 4.5603934165445885 -4.0545489372018914e-14 -2.7082725541940373e-13 5.81910816880901e-14 24.132088118275256" Properties=species:S:1:pos:R:3 unique_starting_index=168 config_type=initial n_minim_iter=10 stress="-3.644839698944526e-05 4.3089656713677926e-18 1.36004536642653e-17 4.3089656713677926e-18 -3.644839698973952e-05 -1.2816883510134152e-16 1.36004536642653e-17 -1.2816883510134152e-16 -2.343288215585055e-05" pbc="T T T"
Si       1.25620600       0.79255463      22.50583612
Si       3.95141330       0.69162899      22.50583612
Si       2.69121381       3.07620980      22.50583612
Si       4.09137891       1.54510207      16.63513955
Si       1.88210163       2.77068703      16.63513955
Si       1.92535256       0.24460431      16.63513955
Si       2.65238157       3.09184102      11.20474785
Si       1.26208508       0.75110931      11.20474785
Si       3.98436645       0.71744309      11.20474785
Si       4.05727785       1.28284494      20.19578183
Si       2.12627351       2.87228322      20.19578183
Si       1.71528175       0.40526526      20.19578183
Si      -1.46736321       3.36374706      18.46818388
Si       0.45353556       1.60774606      18.46818388
Si       1.01382765       4.14929370      18.46818388
Si       3.25584152       2.79886478      13.49948375
Si       1.21407998       1.42020907      13.49948375
Si       3.42891161       0.34131956      13.49948375
Si       0.00000000      -0.00000000      15.06153154
Si       0.00000000       3.04026228      14.86666848
20
Lattice="5.262562908685327 -1.1249170347791381e-12 5.906018004102728e-14 -2.6312814543416874 4.557513167935779 -4.051988169331695e-14 -2.7099503137220974e-13 5.822713073404023e-14 24.147037810362118" Properties=species:S:1:pos:R:3 unique_starting_index=168 config_type=initial n_minim_iter=11 stress="-0.00012711093186366075 8.408422319169495e-17 4.043393638574811e-17 8.408422319169495e-17 -0.0001271109318637098 -5.817384632826728e-17 4.043393638574811e-17 -5.817384632826728e-17 -0.0002699463708447484" pbc="T T T"
Si       1.25648530       0.79215111      22.51512926
Si       3.94829728       0.69207263      22.51512926
Si       2.68906180       3.07328943      22.51512926
Si       4.09036367       1.54407814      16.64841175
Si       1.88017018       2.77031977      16.64841175
Si       1.92331052       0.24311524      16.64841175
Si       2.66235252       3.09080103      11.20887642
Si       1.25467444       0.76026439      11.20887642
Si       3.97681741       0.70644774      11.20887642
Si       4.05547311       1.28591330      20.21129412
Si       2.12119277       2.86918608      20.21129412
Si       1.71717849       0.40241378      20.21129412
Si      -1.47019028       3.36124497      18.48045440
Si       0.45545306       1.60366855      18.48045440
Si       1.01473722       4.15011281      18.48045440
Si       3.25500806       2.80106126      13.50700277
Si       1.20926867       1.41838904      13.50700277
Si       3.42956764       0.33806286      13.50700277
Si       0.00000000      -0.00000000      15.07410358
Si       0.00000000       3.03834211      14.87716115
20
Lattice="5.262803093013515 -1.2133672972860594e-12 5.906287555838512e-14 -2.631401546505706 4.557721173665626 -4.052173102808545e-14 -2.713112582601564e-13 5.829507657147106e-14 24.175215237015415" Properties=species:S:1:pos:R:3 unique_starting_index=168 config_type=initial n_minim_iter=12 stress="0.00023108322004652834 1.9157831778270848e-17 3.007482084734983e-17 1.9157831778270848e-17 0.0002310832200462833 -3.4997441644421023e-17 3.007482084734983e-17 -3.4997441644421023e-17 0.0005408661033481182" pbc="T T T"
Si       1.25623623       0.79214870      22.53986465
Si       3.94866408       0.69185813      22.53986465
Si       2.68930434       3.07371434      22.53986465
Si       4.09064474       1.54372819      16.67008871
Si       1.88057289       2.77073816      16.67008871
Si       1.92298701       0.24325481      16.67008871
Si       2.67019395       3.09055159      11.21975175
Si       1.25120993       0.76717999      11.21975175
Si       3.97280077       0.69998958      11.21975175
Si       4.05739286       1.28916354      20.23427407
Si       2.11765829       2.86922352      20.23427407
Si       1.71915349       0.39933411      20.23427407
Si      -1.47196496       3.36084089      18.50314937
Si       0.45681044       1.60254167      18.50314937
Si       1.01515453       4.15205978      18.50314937
Si       3.25460274       2.80128636      13.52327791
Si       1.20951658       1.41792547      13.52327791
Si       3.43008533       0.33850934      13.52327791
Si       0.00000000      -0.00000000      15.09298994
Si       0.00000000       3.03848078      14.89458606
20
Lattice="5.261550816054701 -1.3379792655301238e-12 5.904882162612234e-14 -2.63077540802619 4.556636670006775 -4.051208893636991e-14 -2.7126658632279074e-13 5.828547817136785e-14 24.171234739826343" Properties=species:S:1:pos:R:3 unique_starting_index=168 config_type=initial n_minim_iter=13 stress="0.00015727074203428275 4.0273991408548785e-17 7.005637158975744e-17 4.0273991408548785e-17 0.0001572707420335471 -5.772995201335219e-17 7.005637158975744e-17 -5.772995201335219e-17 0.0001786214005591416" pbc="T T T"
Si       1.25478402       0.79208859      22.53290922
Si       3.94818996       0.69063054      22.53290922
Si       2.68935225       3.07391753      22.53290922
Si       4.09116739       1.54874218      16.66736586
Si       1.87471705       2.76868380      16.66736586
Si       1.92644179       0.23921069      16.66736586
Si       2.68708667       3.08755464      11.21446519
Si       1.24410673       0.78330799      11.21446519
Si       3.96113284       0.68577403      11.21446519
Si       4.05771921       1.29294771      20.23202694
Si       2.11296564       2.86761406      20.23202694
Si       1.72164137       0.39607489      20.23202694
Si      -1.47190778       3.36172456      18.50251174
Si       0.45539043       1.60106486      18.50251174
Si       1.01651736       4.15048392      18.50251174
Si       3.25466829       2.79839995      13.52253403
Si       1.21073122       1.41942544      13.52253403
Si       3.42692672       0.33881127      13.52253403
Si       0.00000000      -0.00000000      15.08767665
Si       0.00000000       3.03775778      14.90001776
20
Lattice="5.259876033198073 -1.4483334187359235e-12 5.903002603569287e-14 -2.6299380165977806 4.555186265507167 -4.049919369798607e-14 -2.712667761511455e-13 5.828551895868531e-14 24.171251654499773" Properties=species:S:1:pos:R:3 unique_starting_index=168 config_type=initial n_minim_iter=14 stress="3.799300429894557e-06 8.862680166069556e-17 1.201579094552307e-16 8.862680166069556e-17 3.7993004291584167e-06 -6.403867984849693e-17 1.201579094552307e-16 -6.403867984849693e-17 -3.062062893345725e-05" pbc="T T T"
Si       1.25383601       0.79217766      22.53098351
Si       3.94691205       0.68976500      22.53098351
Si       2.68906599       3.07324359      22.53098351
Si       4.09054571       1.55134244      16.66793148
Si       1.87110122       2.76684527      16.66793148
Si       1.92816713       0.23699854      16.66793148
Si       2.69840210       3.08579117      11.21220422
Si       1.23830143       0.79398918      11.21220422
Si       3.95311052       0.67540590      11.21220422
Si       4.05692357       1.29557615      20.23244074
Si       2.10941239       2.86561079      20.23244074
Si       1.72347810       0.39399931      20.23244074
Si      -1.47190180       3.36134916      18.50388297
Si       0.45487515       1.59980733      18.50388297
Si       1.01702665       4.14921603      18.50388297
Si       3.25415893       2.79650029      13.52346373
Si       1.21095628       1.41993415      13.52346373
Si       3.42469885       0.33875182      13.52346373
Si       0.00000000      -0.00000000      15.08620771
Si       0.00000000       3.03679084      14.90444220
20
Lattice="5.257925260096402 -1.6357386715037948e-12 5.9008133088739e-14 -2.628962630046783 4.553496846444198 -4.0484173431877946e-14 -2.712870330941779e-13 5.82898714505537e-14 24.173056651317808" Properties=species:S:1:pos:R:3 unique_starting_index=168 config_type=initial n_minim_iter=15 stress="-0.0001460900651531439 7.419670583201712e-17 7.71600710584083e-17 7.419670583201712e-17 -0.00014609006515373322 -2.1542830035846274e-17 7.71600710584083e-17 -2.1542830035846274e-17 -0.00020553647236783875" pbc="T T T"
Si       1.25288464       0.79309623      22.53087220
Si       3.94464145       0.68848181      22.53087220
Si       2.68936180       3.07191880      22.53087220
Si       4.08950656       1.55480000      16.66990846
Si       1.86667569       2.76421656      16.66990846
Si       1.93070565       0.23448028      16.66990846
Si       2.71613351       3.08486832      11.21046702
Si       1.22828417       0.80980645      11.21046702
Si       3.94247022       0.65882206      11.21046702
Si       4.05497903       1.29967352      20.23381031
Si       2.10488546       2.86187808      20.23381031
Si       1.72702340       0.39194524      20.23381031
Si      -1.47177489       3.36049825      18.50683295
Si       0.45457322       1.59865328      18.50683295
Si       1.01720167       4.14784216      18.50683295
Si       3.25356582       2.79460990      13.52558635
Si       1.21093918       1.42036570      13.52558635
Si       3.42238289       0.33852124      13.52558635
Si       0.00000000      -0.00000000      15.08507656
Si       0.00000000       3.03566456      14.91110196
20
Lattice="5.259285556583016 -1.6692380119826081e-12 5.902339929207048e-14 -2.629642778290061 4.5546748977583 -4.04946472359275e-14 -2.7130048324689093e-13 5.829276140686175e-14 24.174255128442905" Properties=species:S:1:pos:R:3 unique_starting_index=168 config_type=initial n_minim_iter=16 stress="-1.0283600470522609e-05 1.164579141071714e-16 1.3184289377028335e-16 1.164579141071714e-16 -1.0283600470817093e-05 -7.723941799814225e-17 1.3184289377028335e-16 -7.723941799814225e-17 2.0736786151273667e-05" pbc="T T T"
Si       1.25357567       0.79430946      22.53425525
Si       3.94460555       0.68847364      22.53425525
Si       2.69074712       3.07189179      22.53425525
Si       4.08947988       1.55395547      16.67008190
Si       1.86878071       2.76461572      16.67008190
Si       1.93066775       0.23610370      16.67008190
Si       2.71539815       3.08783803      11.21282967
Si       1.22744031       0.80768476      11.21282967
Si       3.94608988       0.65915210      11.21282967
Si       4.05423708       1.29886989      20.23373256
Si       2.10731270       2.86163735      20.23373256
Si       1.72737856       0.39416765      20.23373256
Si      -1.47136193       3.36048875      18.50658690
Si       0.45505512       1.60019370      18.50658690
Si       1.01630682       4.14866733      18.50658690
Si       3.25426017       2.79622043      13.52591712
Si       1.21055755       1.42016176      13.52591712
Si       3.42411062       0.33829270      13.52591712
Si       0.00000000      -0.00000000      15.08569457
Si       0.00000000       3.03644993      14.90946474
20
Lattice="5.261485319329565 -1.7466359227140436e-12 5.90480865758358e-14 -2.6307426596632673 4.556579948179149 -4.051158463464121e-14 -2.712175158109334e-13 5.827493467507322e-14 24.166862307242607" Properties=species:S:1:pos:R:3 unique_starting_index=168 config_type=initial n_minim_iter=17 stress="0.0002706437748537689 6.006413242871217e-17 1.3324637906880128e-16 6.006413242871217e-17 0.0002706437748534255 -2.9010247860712794e-17 1.3324637906880128e-16 -2.9010247860712794e-17 4.792981785008335e-05" pbc="T T T"
Si       1.25253359       0.79557883      22.52874904
Si       3.94622704       0.68693649      22.52874904
Si       2.69346735       3.07406462      22.52874904
Si       4.09003683       1.55359382      16.66325338
Si       1.87101519       2.76527889      16.66325338
Si       1.93117596       0.23770724      16.66325338
Si       2.72419055       3.08919496      11.20952981
Si       1.22406873       0.81462074      11.20952981
Si       3.94396870       0.65276424      11.20952981
Si       4.05678190       1.29730528      20.22789749
Si       2.10959504       2.86462354      20.22789749
Si       1.72585104       0.39465113      20.22789749
Si      -1.47077155       3.36168720      18.49937349
Si       0.45482192       1.60201082      18.49937349
Si       1.01594964       4.14946187      18.49937349
Si       3.25558118       2.79601569      13.52415839
Si       1.21227411       1.42140816      13.52415839
Si       3.42437269       0.33915609      13.52415839
Si       0.00000000      -0.00000000      15.08046595
Si       0.00000000       3.03771996      14.90263984
20
Lattice="5.257571360177459 -1.8317347049968383e-12 5.900416137509108e-14 -2.62878568008714 4.553190360124092 -4.048144852709223e-14 -2.713928024053422e-13 5.831259748902516e-14 24.18248123575728" Properties=species:S:1:pos:R:3 unique_starting_index=168 config_type=initial n_minim_iter=18 stress="-3.7040933684035826e-05 5.950343652956336e-17 1.4593130518269464e-16 5.950343652956336e-17 -3.704093368477227e-05 -3.012596324176445e-17 1.4593130518269464e-16 -3.012596324176445e-17 -3.1126551017998346e-05" pbc="T T T"
Si       1.25101598       0.79630643      22.54391380
Si       3.94244178       0.68525840      22.54391380
Si       2.69289929       3.07162553      22.54391380
Si       4.08673306       1.55192150      16.67282791
Si       1.87020139       2.76325390      16.67282791
Si       1.92942259       0.23801496      16.67282791
Si       2.73018808       3.08658502      11.21784495
Si       1.21941628       0.82111972      11.21784495
Si       3.93675268       0.64548561      11.21784495
Si       4.05392724       1.29294584      20.24205123
Si       2.11088380       2.86433105      20.24205123
Si       1.72154600       0.39591347      20.24205123
Si      -1.47026601       3.35993853      18.50992315
Si       0.45412657       1.59993338      18.50992315
Si       1.01613945       4.14650881      18.50992315
Si       3.25449350       2.79407513      13.53223815
Si       1.21058457       1.42143648      13.53223815
Si       3.42127897       0.33767875      13.53223815
Si       0.00000000      -0.00000000      15.09247921
Si       0.00000000       3.03546024      14.91152413
20
Lattice="5.2569752911066185 -1.8796046963290553e-12 5.899747186899855e-14 -2.628487645551678 4.5526741491663545 -4.047685900509447e-14 -2.714707282335196e-13 5.832934095978915e-14 24.189424824021177" Properties=species:S:1:pos:R:3 unique_starting_index=168 config_type=initial n_minim_iter=19 stress="2.560280739564299e-05 9.241248785568511e-17 1.0634857044092814e-16 9.241248785568511e-17 2.5602807394906588e-05 -7.128898219416615e-17 1.0634857044092814e-16 -7.128898219416615e-17 5.35615436288045e-05" pbc="T T T"
Si       1.25093722       0.79675100      22.54953593
Si       3.94150008       0.68496791      22.54953593
Si       2.69302564       3.07095524      22.54953593
Si       4.08689429       1.55075301      16.67870041
Si       1.87053664       2.76397776      16.67870041
Si       1.92803201       0.23794337      16.67870041
Si       2.73662402       3.08578592      11.21984599
Si       1.21629428       0.82709296      11.21984599
Si       3.93254464       0.63979526      11.21984599
Si       4.05393872       1.29392446      20.24765023
Si       2.10943448       2.86385169      20.24765023
Si       1.72208974       0.39489800      20.24765023
Si      -1.47097479       3.35910764      18.51579692
Si       0.45490249       1.59921878      18.51579692
Si       1.01607231       4.14702187      18.51579692
Si       3.25356082       2.79442818      13.53654922
Si       1.21014909       1.42045223      13.53654922
Si       3.42175303       0.33779374      13.53654922
Si       0.00000000      -0.00000000      15.09730968
Si       0.00000000       3.03511610      14.91595214
20
Lattice="5.257257539859493 -1.766007365846007e-12 5.900063946289693e-14 -2.6286287699282123 4.552918583756469 -4.0479032221125864e-14 -2.7144591529315415e-13 5.832400954719733e-14 24.187213864631396" Properties=species:S:1:pos:R:3 unique_starting_index=168 config_type=initial n_minim_iter=20 stress="-9.398241846440153e-06 1.4075742337111964e-16 2.0068428857776263e-16 1.4075742337111964e-16 -9.398241847471095e-06 -3.86226644934698e-17 2.0068428857776263e-16 -3.86226644934698e-17 -1.9895599569043338e-05" pbc="T T T"
Si       1.25114968       0.79758335      22.54865251
Si       3.94095526       0.68473572      22.54865251
Si       2.69378138       3.07059950      22.54865251
Si       4.08775884       1.54997353      16.67682802
Si       1.87106167       2.76511623      16.67682802
Si       1.92706581       0.23782882      16.67682802
Si       2.73553911       3.08513698      11.21919539
Si       1.21768099       0.82647787      11.21919539
Si       3.93266622       0.64130374      11.21919539
Si       4.05295730       1.28970497      20.24505123
Si       2.11386162       2.86511149      20.24505123
Si       1.71906740       0.39810212      20.24505123
Si      -1.46993100       3.35991573      18.51349339
Si       0.45382190       1.59996313      18.51349339
Si       1.01610911       4.14595830      18.51349339
Si       3.25403518       2.79471246      13.53587988
Si       1.20994797       1.42072090      13.53587988
Si       3.42190317       0.33748522      13.53587988
Si       0.00000000      -0.00000000      15.09403049
Si       0.00000000       3.03527905      14.91524878
