16
Lattice="4.917278496596563 -0.9076194464832202 0.6436270370381214 -0.012078000657401382 5.221845902829085 1.6250342116928216 4.285848893273263 2.708308848043673 14.363491229313832" Properties=species:S:1:pos:R:3 unique_starting_index=138 config_type=initial n_minim_iter=1 energy=-2601.311529223951 free_energy=-2601.311529223951 pbc="T T T"
Si       2.45173974       1.41221165       3.80419957
Si       4.64602796       4.33774172       7.86538167
Si       7.22316320       5.36319714      12.20389760
Si       6.57312380       2.78043208      13.17549703
Si       5.42095632       1.20746763       3.33378073
Si       5.79419700       5.63335577      14.11781581
Si       4.05494115       3.93097899      13.19605955
Si       4.10454294       3.05222330       4.00518616
Si       3.87048913       4.80969556       5.65780582
Si       4.49593509       7.38155532      12.92059209
Si       2.91133361       4.98137178       9.31256397
Si       2.60152718       3.01983535       2.03639751
Si       0.90208652       2.26555442       5.42012122
Si       6.20307899       5.96671803      10.03809349
Si       5.86830794       2.98969684       9.36650751
Si       4.32751489       5.05652220      11.25038738
16
Lattice="4.8125430570584 -0.7861881445135138 0.4790430801086696 0.020709883769824838 5.281982372549548 2.030952291498337 3.8955871388345518 3.713917224856553 14.903755095742515" Properties=species:S:1:pos:R:3 unique_starting_index=138 config_type=initial n_minim_iter=2 stress="0.0011263065352589304 -0.0001801390669596606 -0.002391666204205472 -0.0001801390669596606 0.003287306671751395 0.006547132555018344 -0.002391666204205472 0.006547132555018344 0.007594004686838373" pbc="T T T"
Si       2.30190060       1.65855460       4.09249802
Si       4.41545785       5.02394049       8.28312169
Si       6.90952348       6.25659602      12.84542881
Si       6.16290822       3.74881343      13.65832735
Si       5.29218994       1.55729416       3.34615247
Si       5.42973165       6.59454407      14.78557753
Si       3.73746462       4.76483101      13.82976460
Si       3.99326095       3.36750029       4.22287893
Si       3.74683760       5.09403132       6.00500868
Si       4.19758063       8.29760517      13.69593744
Si       2.68991734       5.61926008       9.85762096
Si       2.54994035       3.22602363       2.17144280
Si       0.74921574       2.57269529       5.71464907
Si       5.95611709       6.71290561      10.68536770
Si       5.54956790       3.56314143       9.76948683
Si       4.09730911       5.83706287      11.73814969
16
Lattice="4.778716365194527 -0.7583549638356225 0.47062049324854877 0.04001404436309193 5.2302140416171365 2.0156519240709234 3.8753953282546867 3.7076610269973465 14.753104986022405" Properties=species:S:1:pos:R:3 unique_starting_index=138 config_type=initial n_minim_iter=3 stress="-0.009803540131344943 0.0010662746417270416 -0.0011052924794971773 0.0010662746417270416 -0.008378048900975241 0.004571613259475522 -0.0011052924794971773 0.004571613259475522 -0.005335349682598004" pbc="T T T"
Si       2.28369003       1.65013115       4.09029186
Si       4.39182327       5.03334324       8.19896711
Si       6.89191974       6.23960122      12.73984857
Si       6.12224537       3.75222173      13.52793745
Si       5.26621546       1.58184746       3.29853502
Si       5.41333568       6.55708876      14.63103817
Si       3.73367074       4.72578821      13.70031400
Si       3.98095397       3.35668007       4.17798545
Si       3.74322750       5.03436403       5.92743692
Si       4.18980027       8.25892659      13.55600262
Si       2.68369098       5.58551005       9.75207762
Si       2.54393321       3.22212977       2.13206438
Si       0.74250467       2.54278645       5.65509687
Si       5.94404866       6.69326565      10.59789949
Si       5.51608562       3.52960909       9.68006062
Si       4.09572544       5.80351471      11.59543785
16
Lattice="4.828397428145219 -0.7552923094737173 0.47606956551992297 0.05092328117277006 5.251009046215591 1.999303613129548 3.928152945297576 3.67674820250257 14.771759994565615" Properties=species:S:1:pos:R:3 unique_starting_index=138 config_type=initial n_minim_iter=4 stress="0.003489808195545569 0.0008320873409606482 0.0022481386953881696 0.0008320873409606482 0.0003829420688213272 0.0001582235016275322 0.0022481386953881696 0.0001582235016275322 0.003711309118406736" pbc="T T T"
Si       2.30684875       1.64338090       4.13321656
Si       4.43855798       5.06744117       8.19602073
Si       6.99305709       6.24211724      12.77012361
Si       6.19040107       3.73294537      13.55275631
Si       5.32887559       1.60174860       3.28742583
Si       5.49012064       6.53640418      14.63197518
Si       3.79892212       4.68472975      13.72065388
Si       4.03306702       3.36853445       4.17204970
Si       3.79894798       5.01784401       5.90215999
Si       4.24740447       8.27338933      13.54957177
Si       2.71936462       5.58397087       9.74078888
Si       2.57671918       3.25275862       2.10608199
Si       0.74963810       2.52560731       5.65556544
Si       6.03118225       6.71387325      10.61141279
Si       5.58096946       3.49383515       9.69688461
Si       4.16109434       5.79136968      11.57516061
16
Lattice="4.802070009975764 -0.7822782679274258 0.40825793969420837 0.010443438694702363 5.291258563311306 1.975667498325972 3.7157738025489904 3.661487239356914 14.57062317684243" Properties=species:S:1:pos:R:3 unique_starting_index=138 config_type=initial n_minim_iter=5 stress="0.001692134822772641 -0.0006026837384282053 -0.0031771593919302237 -0.0006026837384282053 0.0014427834301420498 -0.0010628925523314939 -0.0031771593919302237 -0.0010628925523314939 -0.0031528846201286866" pbc="T T T"
Si       2.24198316       1.64051459       4.10026379
Si       4.28174475       5.09224338       8.05090239
Si       6.80381419       6.24666400      12.57784627
Si       5.97121305       3.71350633      13.34228259
Si       5.25990549       1.59564342       3.16819827
Si       5.26534375       6.52845993      14.40476234
Si       3.61621626       4.66289427      13.53184523
Si       3.95085447       3.36723112       4.06897234
Si       3.70065722       5.01593115       5.77438991
Si       4.02187937       8.31421790      13.35629952
Si       2.55439703       5.59893792       9.58788090
Si       2.52602663       3.28252313       2.03265276
Si       0.66426689       2.53191727       5.59131974
Si       5.86426431       6.73830503      10.42698393
Si       5.42865728       3.46819825       9.52674212
Si       3.97990405       5.78315452      11.38851341
16
Lattice="4.722403965993869 -0.7948449185620162 0.4151779785127888 0.0029007436157797548 5.311076942683007 1.9782520262703382 3.658939825824462 3.668037678566071 14.58513269312642" Properties=species:S:1:pos:R:3 unique_starting_index=138 config_type=initial n_minim_iter=6 stress="-0.006894045855609741 -0.0034018282875819556 0.0025706297624691027 -0.0034018282875819556 -0.0013105182608893946 -0.003142086155438519 0.0025706297624691027 -0.003142086155438519 -0.00287471782019822" pbc="T T T"
Si       2.21778640       1.64699214       4.17673872
Si       4.16643006       5.11763126       8.06231171
Si       6.73410840       6.26895086      12.65849151
Si       5.85369065       3.71860195      13.37468799
Si       5.16994743       1.60136706       3.14827734
Si       5.17823808       6.52046034      14.41076859
Si       3.59919409       4.64456832      13.54050046
Si       3.87725108       3.35332979       4.06240761
Si       3.64726495       5.01229221       5.75589545
Si       3.92439755       8.36524272      13.38185099
Si       2.47433642       5.61076746       9.55862859
Si       2.47087874       3.32118815       2.01149189
Si       0.64931318       2.54831657       5.60738938
Si       5.78612128       6.77479806      10.44412556
Si       5.35019864       3.46310841       9.53907902
Si       3.90557404       5.75821042      11.39154435
16
Lattice="4.740348505760942 -0.7476049804049629 0.38294655496271096 0.040386941987730865 5.309088923109237 1.990605974341922 3.6296778011043487 3.7506563080014486 14.524178073169399" Properties=species:S:1:pos:R:3 unique_starting_index=138 config_type=initial n_minim_iter=7 stress="-0.0019092212567400086 0.0027906587304441315 -0.0013141432305538029 0.0027906587304441315 -0.0021053058813977382 -0.00232549634544401 -0.0013141432305538029 -0.00232549634544401 -0.0042017665647474875" pbc="T T T"
Si       2.23275828       1.68411086       4.18241871
Si       4.17164874       5.17156282       8.02588572
Si       6.78471111       6.37519488      12.62309109
Si       5.83607672       3.81680115      13.31155795
Si       5.19508263       1.65749765       3.09974291
Si       5.18230573       6.60195656      14.34787339
Si       3.60495847       4.71252701      13.48108407
Si       3.90454545       3.38584148       4.02842726
Si       3.68743639       5.06394182       5.72173917
Si       3.93464828       8.44709530      13.34889548
Si       2.46515305       5.65955845       9.51169591
Si       2.49991113       3.35962849       1.99252280
Si       0.64320486       2.58121870       5.60246897
Si       5.83372141       6.86362219      10.39315873
Si       5.36326892       3.55017076       9.48044248
Si       3.90786559       5.80389325      11.34986711
16
Lattice="4.769609023810649 -0.7907200925284567 0.37856787837362244 -0.007940492481312449 5.328752177054674 2.026149581506121 3.629487338046536 3.8160433007609975 14.533542351230063" Properties=species:S:1:pos:R:3 unique_starting_index=138 config_type=initial n_minim_iter=8 stress="-4.43225324930084e-05 -0.003260687278002722 -0.002005101823377569 -0.003260687278002722 0.00017425547578240794 0.0017859343147242444 -0.002005101823377569 0.0017859343147242444 0.00019341191141754682" pbc="T T T"
Si       2.24896435       1.69954880       4.20430959
Si       4.13757300       5.16955597       8.05005859
Si       6.80216963       6.40936515      12.67375981
Si       5.84194841       3.85194147      13.32621971
Si       5.20622227       1.61739529       3.09915077
Si       5.15416176       6.64700373      14.37742025
Si       3.60981800       4.77373365      13.49104878
Si       3.88913003       3.36310796       4.04125133
Si       3.66923846       5.09719290       5.74685306
Si       3.88083121       8.51027920      13.40175824
Si       2.41342810       5.70822451       9.52680352
Si       2.47470182       3.36108677       2.01417346
Si       0.62659683       2.62945866       5.62862060
Si       5.81250751       6.88352109      10.42412598
Si       5.36796386       3.58907004       9.48699686
Si       3.87645239       5.82439436      11.38418155
16
Lattice="4.770342985609962 -0.7404989524225015 0.44150595865060216 0.07565843507330051 5.350425779178767 1.9843659072395587 3.839654250471604 3.7887355467730353 14.510137933244128" Properties=species:S:1:pos:R:3 unique_starting_index=138 config_type=initial n_minim_iter=9 stress="0.002757095484330303 0.003541175625567947 0.003269730467605829 0.003541175625567947 0.0024690662182569783 -0.0003859650635126077 0.003269730467605829 -0.0003859650635126077 0.002454410508134889" pbc="T T T"
Si       2.32541221       1.71319533       4.21011941
Si       4.28985320       5.17318811       8.03759542
Si       7.05676666       6.45692502      12.67888007
Si       6.05270449       3.86002249      13.33188291
Si       5.27030944       1.65005765       3.14063099
Si       5.38277468       6.65506053      14.35716175
Si       3.82198773       4.76684859      13.46697357
Si       3.97496034       3.39521085       4.05191838
Si       3.79951522       5.17314809       5.73548916
Si       4.13744998       8.51418946      13.35565783
Si       2.58028294       5.72651515       9.48945800
Si       2.53088658       3.39854587       2.02423867
Si       0.71598497       2.62502542       5.61399848
Si       6.00472401       6.92058895      10.42601785
Si       5.50478700       3.63619065       9.48974412
Si       4.07181992       5.82032110      11.35146762
16
Lattice="4.7604699247312725 -0.7207643244515175 0.41228617259264716 0.07967646908260338 5.327896799291347 2.0084198199384127 3.7590567192347453 3.8328759893984463 14.553358788603907" Properties=species:S:1:pos:R:3 unique_starting_index=138 config_type=initial n_minim_iter=10 stress="0.00179895698934437 0.002960340456847443 0.0002778204859036515 0.002960340456847443 -0.002916385267958717 0.0007793229719798568 0.0002778204859036515 0.0007793229719798568 0.007686461830202903" pbc="T T T"
Si       2.30311446       1.72508176       4.26735953
Si       4.24508383       5.18977520       8.04581769
Si       7.06169746       6.51134576      12.73354573
Si       5.99094696       3.90733360      13.36774497
Si       5.26983995       1.65115816       3.10484092
Si       5.28504753       6.67167078      14.39696604
Si       3.76502257       4.78766431      13.52837787
Si       3.95463310       3.39076348       4.04553067
Si       3.78774030       5.19830299       5.71080136
Si       4.08112138       8.52749125      13.40651059
Si       2.51522184       5.76373861       9.51709304
Si       2.51222526       3.41465957       2.01827078
Si       0.66384657       2.62331352       5.65677718
Si       5.94375520       6.94027981      10.49341549
Si       5.41717252       3.66435839       9.49424192
Si       4.02720028       5.81608633      11.33629368
16
Lattice="4.773072079955654 -0.7456481436587954 0.40988178958915295 0.06691410436605534 5.3785090429677584 1.969101824859671 3.7768455940311982 3.8142002697829738 14.31666772694502" Properties=species:S:1:pos:R:3 unique_starting_index=138 config_type=initial n_minim_iter=11 stress="0.0007111426334875881 0.00035807149497557995 -0.0004566228571217492 0.00035807149497557995 -0.0004921036867748074 0.0007930293307639933 -0.0004566228571217492 0.0007930293307639933 0.0022073940998737877" pbc="T T T"
Si       2.30929035       1.72416504       4.21670591
Si       4.24795288       5.20057805       7.90405751
Si       7.11178618       6.52836662      12.53560973
Si       6.02405657       3.88747922      13.15455732
Si       5.29247128       1.62819792       3.04868525
Si       5.28398667       6.67082678      14.15899788
Si       3.78290692       4.78095538      13.31480483
Si       3.95725497       3.39359663       3.97513966
Si       3.79401514       5.24231266       5.59444008
Si       4.08905440       8.55857413      13.18315555
Si       2.50540659       5.79900735       9.35162026
Si       2.50214605       3.44256250       1.98353383
Si       0.65149247       2.62543041       5.57424204
Si       5.94029660       6.95913981      10.34159401
Si       5.41311922       3.66270489       9.33360339
Si       4.03860488       5.81373477      11.12744837
16
Lattice="4.791096180620581 -0.7700707766440213 0.4194055925842449 0.06404601363056908 5.424113074196231 1.8808859705694467 3.826980418226087 3.693582652762462 13.993340433194396" Properties=species:S:1:pos:R:3 unique_starting_index=138 config_type=initial n_minim_iter=12 stress="-0.0018237609671513657 -0.002405932339192435 -0.0006981004036619862 -0.002405932339192435 0.00025463883692499964 -0.0016424102012091797 -0.0006981004036619862 -0.0016424102012091797 -0.0049180854020018355" pbc="T T T"
Si       2.32295674       1.70047868       4.13275601
Si       4.28130071       5.16765037       7.68943174
Si       7.20160123       6.46755734      12.23561171
Si       6.10745517       3.77986368      12.86327229
Si       5.34134222       1.58516214       2.97914093
Si       5.31628979       6.57130440      13.81309858
Si       3.82584109       4.68676775      13.01458104
Si       3.97574677       3.37113171       3.86862561
Si       3.81922916       5.26742138       5.40296162
Si       4.14745451       8.50347773      12.85404828
Si       2.51246582       5.77242238       9.09945185
Si       2.50001142       3.46112143       1.92636440
Si       0.63798412       2.57118942       5.45258976
Si       5.95949744       6.91192886      10.12038762
Si       5.43244900       3.61575722       9.10821095
Si       4.08006169       5.73978222      10.83413806
16
Lattice="4.791844151055549 -0.7267597719210148 0.4226586157696424 0.12398702432785207 5.519939323022079 1.917658441473179 3.91485284572747 3.9217608032839077 13.903592438417157" Properties=species:S:1:pos:R:3 unique_starting_index=138 config_type=initial n_minim_iter=13 stress="-0.00021625259705450634 3.0879939784564154e-05 0.0012917158706139277 3.0879939784564154e-05 0.004522822897507244 0.0031477680573030065 0.0012917158706139277 0.0031477680573030065 -0.003800695300473417" pbc="T T T"
Si       2.35029662       1.80139887       4.14185914
Si       4.35800144       5.38901573       7.66150241
Si       7.33759553       6.76306582      12.21207944
Si       6.22672891       4.02899799      12.80377813
Si       5.40676116       1.69267414       2.97558172
Si       5.42857770       6.82899701      13.74240433
Si       3.92146936       4.91131519      12.95154565
Si       4.02676431       3.47836426       3.86977316
Si       3.89881067       5.44063450       5.35546657
Si       4.30353725       8.80361098      12.85274217
Si       2.57185853       5.96319137       9.04710731
Si       2.53661091       3.56986992       1.95194400
Si       0.64279127       2.62190662       5.44349083
Si       6.05914452       7.17493172      10.16215231
Si       5.49997427       3.83420312       9.06557104
Si       4.17790942       5.95640958      10.78878719
16
Lattice="4.799221507867039 -0.7147190521556447 0.42393687955319426 0.13857597556186743 5.497138090668555 1.8748232672823024 3.9154370042040605 3.8131882543226827 13.87434184672845" Properties=species:S:1:pos:R:3 unique_starting_index=138 config_type=initial n_minim_iter=14 stress="0.0006650650270654672 -7.389387004910953e-05 0.00035641438652373364 -7.389387004910953e-05 0.0012046677175684636 0.0006356377220508832 0.00035641438652373364 0.0006356377220508832 -0.0003978726960431478" pbc="T T T"
Si       2.35940024       1.78350274       4.13135600
Si       4.36677419       5.33509744       7.60529540
Si       7.36844865       6.68003132      12.15998128
Si       6.25391620       3.94010555      12.77580689
Si       5.43527043       1.67742837       2.95527080
Si       5.43924118       6.70536214      13.68097804
Si       3.92789457       4.81041519      12.91324690
Si       4.03823717       3.43491521       3.83520896
Si       3.91940357       5.41830651       5.27802972
Si       4.33439220       8.70165879      12.80820094
Si       2.56080062       5.88140644       8.98288039
Si       2.54633832       3.56209955       1.92705487
Si       0.62256068       2.55254698       5.43890396
Si       6.07383442       7.09971117      10.12794395
Si       5.51504308       3.79889579       9.02456116
Si       4.18076858       5.86331744      10.75116956
16
Lattice="4.789315901391545 -0.6942114486845247 0.42613622135810036 0.1653324888395162 5.4915647183779965 1.834665635284291 3.914919486677659 3.73380265991179 13.83576373872907" Properties=species:S:1:pos:R:3 unique_starting_index=138 config_type=initial n_minim_iter=15 stress="-0.0006246323153229889 0.00039275473283043424 -0.00019339943065144142 0.00039275473283043424 -0.0020777709889789235 -0.001181448672448555 -0.00019339943065144142 -0.001181448672448555 0.001329280859731339" pbc="T T T"
Si       2.37303309       1.78226487       4.11687649
Si       4.36160138       5.30392197       7.53320600
Si       7.39389631       6.64533239      12.11019991
Si       6.27768373       3.88541199      12.74549591
Si       5.45133120       1.67973253       2.93045237
Si       5.45558188       6.60935334      13.61471969
Si       3.93731321       4.73902999      12.86861133
Si       4.04263512       3.39993263       3.79912758
Si       3.94518121       5.43525215       5.18942934
Si       4.37849228       8.64174574      12.76867892
Si       2.55908164       5.83266487       8.91329488
Si       2.55713556       3.57848289       1.90006377
Si       0.60445014       2.49147241       5.44309233
Si       6.08224971       7.06303511      10.09591979
Si       5.51808757       3.79592285       8.97791367
Si       4.17651284       5.81017678      10.71421794
16
Lattice="4.789884715734271 -0.6892071020702712 0.40932071395340486 0.1636977672379177 5.4914110611008935 1.8450725954732448 3.8717042270702526 3.757021319012861 13.848250704413585" Properties=species:S:1:pos:R:3 unique_starting_index=138 config_type=initial n_minim_iter=16 stress="0.0010339602831570993 0.0005277308134832926 -1.3386729290655405e-05 0.0005277308134832926 -0.002031096507513494 -0.00018119621956108376 -1.3386729290655405e-05 -0.00018119621956108376 0.002356597241538601" pbc="T T T"
Si       2.36674563       1.79219552       4.10646780
Si       4.31255629       5.31476595       7.49536075
Si       7.34170113       6.68085026      12.12569175
Si       6.25301589       3.91135590      12.76237388
Si       5.45021373       1.69672129       2.90529639
Si       5.44016214       6.59706597      13.63224455
Si       3.89631969       4.75192233      12.88959040
Si       4.03336743       3.38854587       3.79520287
Si       3.94356798       5.45093678       5.15822581
Si       4.36236463       8.65752797      12.80504525
Si       2.55560573       5.85760863       8.92901917
Si       2.56349946       3.60063029       1.88247882
Si       0.58422347       2.47634235       5.47664505
Si       6.04121835       7.07976065      10.11471669
Si       5.47551624       3.79766280       8.98315395
Si       4.12878748       5.86586351      10.73470658
16
Lattice="4.771229788325178 -0.6883565360032866 0.39376930995900933 0.1745769920739514 5.555525306908019 1.8203539843637626 3.833521740482975 3.7770839621863312 13.700559746050935" Properties=species:S:1:pos:R:3 unique_starting_index=138 config_type=initial n_minim_iter=17 stress="-0.0004074014106339949 0.00016304088102064767 -0.0005914415963702427 0.00016304088102064767 0.0023438394831373876 4.7502769821115966e-05 -0.0005914415963702427 4.7502769821115966e-05 -0.000864829719613927" pbc="T T T"
Si       2.35712553       1.81606216       4.06546176
Si       4.25629454       5.36132596       7.35468389
Si       7.31893850       6.77942934      12.01009418
Si       6.23565678       3.95033289      12.63737418
Si       5.44862069       1.72176656       2.83710170
Si       5.42073126       6.60460347      13.48548803
Si       3.87038782       4.77573780      12.76016019
Si       4.01785719       3.40107116       3.73928152
Si       3.94966418       5.54124391       5.02709630
Si       4.36646260       8.73779756      12.69064181
Si       2.53959444       5.92966286       8.81827167
Si       2.56250045       3.67265599       1.83675052
Si       0.56142981       2.45948143       5.45574109
Si       5.99310770       7.15285222      10.02553707
Si       5.41863695       3.84124859       8.87741917
Si       4.08206578       5.94326657      10.61832701
16
Lattice="4.797831462253988 -0.6968009488192083 0.393147638483277 0.1511240668344024 5.490017008340249 1.8365761188599716 3.8427743113050807 3.7587820834534984 13.731793200036137" Properties=species:S:1:pos:R:3 unique_starting_index=138 config_type=initial n_minim_iter=18 stress="-0.0005403820373355146 -0.00102596599996945 0.0011716253774430787 -0.00102596599996945 -0.0033232382934065934 0.00035549378249379287 0.0011716253774430787 0.00035549378249379287 -0.001573747846273771" pbc="T T T"
Si       2.34641875       1.78792032       4.05829516
Si       4.24102469       5.28792161       7.35812359
Si       7.30436275       6.72461995      12.05755814
Si       6.25237317       3.92944436      12.67349729
Si       5.46763084       1.70048565       2.83282590
Si       5.44915471       6.52134306      13.54549653
Si       3.87465516       4.73893960      12.79017758
Si       4.02998110       3.36803575       3.76033922
Si       3.95048822       5.46001403       5.02476731
Si       4.37173699       8.63760753      12.73737544
Si       2.54064994       5.87295831       8.85639239
Si       2.57100918       3.62392864       1.83724522
Si       0.58189908       2.42665480       5.47270230
Si       5.98507947       7.07046201      10.04710800
Si       5.42327383       3.79438230       8.91633855
Si       4.06348398       5.92023469      10.67399711
16
Lattice="4.793608815556689 -0.6784906171680993 0.38215376127023504 0.17448037571941807 5.523165396184014 1.8257561116789272 3.8289787652866627 3.783032723388899 13.67497278216327" Properties=species:S:1:pos:R:3 unique_starting_index=138 config_type=initial n_minim_iter=19 stress="-0.00012018408025691254 0.00024342512712847018 -0.00024231080488295245 0.00024342512712847018 0.0003197584676545022 -0.00046841591664879134 -0.00024231080488295245 -0.00046841591664879134 0.0011814585858165743" pbc="T T T"
Si       2.32626639       1.80373704       4.04461825
Si       4.23167325       5.32028194       7.29364996
Si       7.33295468       6.83083793      12.02242125
Si       6.26227601       3.99621133      12.62454575
Si       5.49192023       1.73431991       2.78525626
Si       5.45647660       6.52786716      13.50411543
Si       3.87592896       4.76353210      12.73476655
Si       4.04242484       3.39987010       3.73395177
Si       3.97672979       5.52346099       4.92231101
Si       4.41813692       8.68057465      12.70366758
Si       2.51886093       5.90945174       8.80174021
Si       2.58804145       3.66445247       1.82103773
Si       0.58160819       2.39019344       5.46491087
Si       5.97516547       7.13104249      10.02096493
Si       5.40260379       3.86449903       8.87619267
Si       4.04559209       5.96824533      10.63982390
16
Lattice="4.836547056980451 -0.6756975512571987 0.387470761240121 0.17986997992239406 5.529430593722106 1.8286939758299345 3.9087772260915834 3.835923333567064 13.556232078918478" Properties=species:S:1:pos:R:3 unique_starting_index=138 config_type=initial n_minim_iter=20 stress="0.0006567728205097913 -9.448191034244831e-06 0.00024209708026200693 -9.448191034244831e-06 0.00023923104322309802 0.0005905259768524594 0.00024209708026200693 0.0005905259768524594 -0.001932133453862394" pbc="T T T"
Si       2.35603960       1.81658858       4.00624818
Si       4.27833477       5.33207470       7.23590424
Si       7.45222053       6.92089296      11.96145252
Si       6.36731237       4.07597414      12.52668393
Si       5.55001717       1.74666253       2.75609626
Si       5.55670062       6.54898309      13.42913945
Si       3.95725169       4.80407149      12.62097641
Si       4.08830188       3.40141325       3.71139094
Si       4.03182401       5.56418210       4.85986632
Si       4.52487871       8.70940126      12.63703877
Si       2.54468657       5.93754592       8.72844113
Si       2.62723831       3.67723531       1.82989141
Si       0.61439905       2.37526546       5.42074700
Si       6.04254100       7.17785664       9.97110098
Si       5.46688755       3.92365876       8.81401738
Si       4.09064566       6.00959626      10.57807597
16
Lattice="4.826789069336822 -0.682939409998592 0.37344322772089156 0.16373946330240358 5.525398988373955 1.8522570689511342 3.8496725547902586 3.8609062339284574 13.634523212160348" Properties=species:S:1:pos:R:3 unique_starting_index=138 config_type=initial n_minim_iter=21 stress="-0.001180285960042092 -0.001250815833270208 -0.0008581828903806441 -0.001250815833270208 8.925249112919121e-05 -0.00026568818701329936 -0.0008581828903806441 -0.00026568818701329936 0.0012484159280259969" pbc="T T T"
Si       2.33783116       1.80283126       3.97587387
Si       4.23896985       5.33619731       7.28568939
Si       7.35539472       6.97051528      12.02679664
Si       6.29746140       4.13579149      12.58351218
Si       5.49987570       1.76184093       2.74788630
Si       5.51693599       6.55235319      13.55335906
Si       3.88144661       4.80344075      12.68160567
Si       4.06236519       3.39091229       3.72399968
Si       3.99010474       5.55913552       4.89001385
Si       4.48899464       8.69077929      12.73413497
Si       2.50859198       5.93428080       8.79656132
Si       2.64679779       3.67257817       1.85899856
Si       0.61926737       2.34674471       5.42915508
Si       5.96924940       7.20262380      10.02671056
Si       5.41614939       3.91807800       8.87180520
Si       4.01247087       6.05692661      10.65883643
