6
Lattice="3.7514584134660844 -0.2711820906125205 0.3839157346316339 -1.5206712658247696 5.442874037939507 0.06870058641374674 0.25189647174369567 -0.3136060291934688 6.540759754253174" Properties=species:S:1:pos:R:3 unique_starting_index=148 config_type=initial n_minim_iter=1 energy=-977.6176754774098 free_energy=-977.6176754774098 pbc="T T T"
Si       1.52290401       3.51804794       2.34853192
Si       1.94703601       1.60066319       0.98912726
Si      -0.54459581       3.59635195       3.58748078
Si       2.49854506       1.36202942       5.14285350
Si       0.61887189       0.44716330       4.02020784
Si      -0.07475098       0.61689625       1.62967479
6
Lattice="3.7552690064677874 -0.2724911371967377 0.3854147067110293 -1.5237040879955404 5.446180905322263 0.06728781485474826 0.25485691750575773 -0.3147991785107026 6.5400962393679185" Properties=species:S:1:pos:R:3 unique_starting_index=148 config_type=initial n_minim_iter=2 stress="0.0005615386584403119 -0.00011958877994555955 0.00015748260535311507 -0.00011958877994555955 0.0004526263390309729 6.787934246585429e-05 0.00015748260535311507 6.787934246585429e-05 0.000403518007755551" pbc="T T T"
Si       1.52351163       3.51942503       2.34851190
Si       1.94861708       1.60033396       0.98956770
Si      -0.54459684       3.59787412       3.58642732
Si       2.50260446       1.36150077       5.14288839
Si       0.62122826       0.44668747       4.01975038
Si      -0.07384508       0.61684999       1.62930852
6
Lattice="3.754858133069775 -0.2726799414907047 0.38546939512586226 -1.5237796726721131 5.444661315272569 0.06591352804758503 0.25532169273717376 -0.31617745549280657 6.535397467125502" Properties=species:S:1:pos:R:3 unique_starting_index=148 config_type=initial n_minim_iter=3 stress="8.092248276528089e-05 -0.00023691958812655618 0.00027640776234888963 -0.00023691958812655618 -0.00010370732194170978 2.7159821632079636e-05 0.00027640776234888963 2.7159821632079636e-05 -0.00018147389121422614" pbc="T T T"
Si       1.52227834       3.51829950       2.34646993
Si       1.94821519       1.59876933       0.98880129
Si      -0.54436064       3.59614218       3.58308161
Si       2.50267097       1.36013464       5.13866793
Si       0.62186344       0.44575246       4.01658155
Si      -0.07310734       0.61610700       1.62784055
6
Lattice="3.75457349636274 -0.2710827979097939 0.3834782714193862 -1.521229438358466 5.444664244996777 0.06441006099811598 0.2518173450447199 -0.3188071746622453 6.532368800555267" Properties=species:S:1:pos:R:3 unique_starting_index=148 config_type=initial n_minim_iter=4 stress="-0.0002918029667840575 -5.4694443881078475e-05 4.725340757816196e-05 -5.4694443881078475e-05 -5.985289673019233e-05 -9.859886448811178e-06 4.725340757816196e-05 -9.859886448811178e-06 -0.00037130029823378085" pbc="T T T"
Si       1.52054073       3.51953503       2.34388184
Si       1.94836838       1.59773471       0.98719369
Si      -0.54453347       3.59513255       3.58050705
Si       2.50095676       1.36003196       5.13361165
Si       0.62097495       0.44479722       4.01399007
Si      -0.07244737       0.61504847       1.62637983
6
Lattice="3.7562135045488865 -0.26980564410483227 0.3823036478297372 -1.520052092524604 5.442709353805015 0.06292505080131067 0.24956848905830567 -0.3210580264976807 6.532774507931077" Properties=species:S:1:pos:R:3 unique_starting_index=148 config_type=initial n_minim_iter=5 stress="-5.585700603910082e-05 2.5701146703438433e-05 -4.142795868980884e-06 2.5701146703438433e-05 -0.00027008262808339464 -1.8776218539113043e-05 -4.142795868980884e-06 -1.8776218539113043e-05 -0.00010278743033601119" pbc="T T T"
Si       1.51938140       3.51926406       2.34275546
Si       1.94943311       1.59587338       0.98655653
Si      -0.54504251       3.59294794       3.58009326
Si       2.50145537       1.35947854       5.13170709
Si       0.62101732       0.44390611       4.01365315
Si      -0.07152497       0.61357068       1.62563153
6
Lattice="3.756167122371415 -0.26967410175499484 0.3816120997241453 -1.5195749340593245 5.445750929035416 0.062335784292981984 0.24824355874997894 -0.3222914535872238 6.532930145255197" Properties=species:S:1:pos:R:3 unique_starting_index=148 config_type=initial n_minim_iter=6 stress="-1.3165381320505313e-05 3.5685310958113325e-05 -3.684388262920261e-05 3.5685310958113325e-05 0.0003730217395450615 3.443322830659903e-05 -3.684388262920261e-05 3.443322830659903e-05 0.00018142538250171675" pbc="T T T"
Si       1.51773911       3.52129764       2.34211391
Si       1.94943483       1.59585374       0.98620319
Si      -0.54622620       3.59465000       3.58014801
Si       2.50145116       1.36028082       5.13087778
Si       0.62084490       0.44433925       4.01349490
Si      -0.07090424       0.61281790       1.62496394
6
Lattice="3.7580239139597595 -0.26970509756967725 0.380590736847292 -1.5203294282693958 5.444587554786465 0.06090975061436458 0.24659262058693465 -0.3244150225044956 6.531405077593091" Properties=species:S:1:pos:R:3 unique_starting_index=148 config_type=initial n_minim_iter=7 stress="0.0005896792064391121 8.62621215911746e-05 -8.415954252997925e-05 8.62621215911746e-05 4.638164067480805e-05 -3.514180756363277e-05 -8.415954252997925e-05 -3.514180756363277e-05 0.00024266121175231783" pbc="T T T"
Si       1.51600391       3.51883864       2.33938167
Si       1.95082283       1.59466343       0.98510144
Si      -0.55041157       3.59356251       3.57938389
Si       2.50392818       1.35947388       5.12914986
Si       0.62082035       0.44488297       4.01219438
Si      -0.07039563       0.60964914       1.62300465
6
Lattice="3.7563266473386716 -0.2704129300422393 0.3810310822313472 -1.520587900199097 5.445424202736712 0.06079286093975736 0.24738661018990585 -0.3243841086630269 6.530635124069823" Properties=species:S:1:pos:R:3 unique_starting_index=148 config_type=initial n_minim_iter=8 stress="0.00015333960399826032 5.892732821561706e-06 1.8182718341212808e-06 5.892732821561706e-06 7.217993319595638e-07 -1.2319905271583902e-05 1.8182718341212808e-06 -1.2319905271583902e-05 8.83871904404116e-05" pbc="T T T"
Si       1.51448203       3.51840103       2.33913483
Si       1.95000622       1.59452090       0.98523998
Si      -0.55118836       3.59451353       3.57915660
Si       2.50379503       1.35948475       5.12933718
Si       0.62122680       0.44546576       4.01178088
Si      -0.07012922       0.60902873       1.62237355
6
Lattice="3.755424634592668 -0.2707345528509138 0.38100733768279643 -1.5206270239690223 5.446045519532455 0.060622881837167346 0.24742033978100586 -0.32460120437363027 6.52941853941686" Properties=species:S:1:pos:R:3 unique_starting_index=148 config_type=initial n_minim_iter=9 stress="-8.769467402243759e-05 -1.733935301166828e-05 -8.9700894382319e-06 -1.733935301166828e-05 -5.297350159025052e-06 -8.002398295498661e-06 -8.9700894382319e-06 -8.002398295498661e-06 -7.848696038742622e-05" pbc="T T T"
Si       1.51313813       3.51804715       2.33855573
Si       1.94979832       1.59433904       0.98507046
Si      -0.55199972       3.59539894       3.57852275
Si       2.50354391       1.35955987       5.12881532
Si       0.62159350       0.44583885       4.01091202
Si      -0.07001192       0.60835600       1.62160024
6
Lattice="3.7550776313520564 -0.2708243882627007 0.38118434875427193 -1.52059103256483 5.446140373623594 0.06047070851108273 0.24771318999391978 -0.3247051249224099 6.529344966345709" Properties=species:S:1:pos:R:3 unique_starting_index=148 config_type=initial n_minim_iter=10 stress="-0.00016366442774214032 -1.4211800291070978e-05 4.937469841035249e-07 -1.4211800291070978e-05 -1.8399279779176082e-05 -6.190274303847616e-06 4.937469841035249e-07 -6.190274303847616e-06 -0.00011026252672354993" pbc="T T T"
Si       1.51225764       3.51755602       2.33856505
Si       1.95002885       1.59409165       0.98521380
Si      -0.55235815       3.59605784       3.57844069
Si       2.50371951       1.35968043       5.12924501
Si       0.62230159       0.44613998       4.01072664
Si      -0.06987616       0.60775683       1.62116346
