12
Lattice="2.508392521335916 -3.624565018657125e-21 2.0926484835224806e-21 1.36648941772575e-20 9.456836387991682 -5.875474133683857e-13 -1.366491015708377e-20 -4.728418193995333 8.189860551434164" Properties=species:S:1:pos:R:3 unique_starting_index=66 config_type=initial n_minim_iter=1 energy=-1952.6957043557431 free_energy=-1952.6957043557431 pbc="T T T"
Si       1.87898447      -2.53524024       8.12536817
Si       1.87898447       3.57597718       6.32275892
Si       1.87898447      -1.04073693       1.93159401
Si       0.62940805       7.26365844       0.06449238
Si       0.62940805       1.15244103       1.86710163
Si       0.62940805       5.76915513       6.25826654
Si       0.64669385       0.30622048       4.08215035
Si       0.64669385      -1.34628252       5.88359066
Si       0.64669385       1.04006206       6.41398009
Si       1.86169867       4.42219773       4.10771020
Si       1.86169867       6.07470072       2.30626989
Si       1.86169867       3.68835615       1.77588046
12
Lattice="2.5090426772796217 -3.6282336434788885e-21 2.094766567423276e-21 1.3654103885376366e-20 9.456489573383097 -5.872535995925728e-13 -1.3654119861012648e-20 -4.728244786691041 8.189560201172727" Properties=species:S:1:pos:R:3 unique_starting_index=66 config_type=initial n_minim_iter=2 stress="0.00022307363954016912 1.5145567245295913e-17 -5.1502963417690613e-17 1.5145567245295913e-17 3.6942688969382244e-05 -2.582558026949132e-16 -5.1502963417690613e-17 -2.582558026949132e-16 3.6942688970040456e-05" pbc="T T T"
Si       1.87950481      -2.53512846       8.12504999
Si       1.87950481       3.57581915       6.32252086
Si       1.87950481      -1.04069067       1.93154955
Si       0.62953786       7.26337326       0.06451021
Si       0.62953786       1.15242565       1.86703934
Si       0.62953786       5.76893547       6.25801065
Si       0.64674598       0.30620522       4.08202394
Si       0.64674598      -1.34621095       5.88336674
Si       0.64674598       1.04000575       6.41372972
Si       1.86229669       4.42203958       4.10753625
Si       1.86229669       6.07445575       2.30619346
Si       1.86229669       3.68823905       1.77583048
12
Lattice="2.509057761819613 -3.642523147652368e-21 2.1030166222811963e-21 1.3597703465792054e-20 9.454683299580294 -5.82744241551347e-13 -1.35977194196115e-20 -4.7273416497896426 8.187995922173306" Properties=species:S:1:pos:R:3 unique_starting_index=66 config_type=initial n_minim_iter=3 stress="0.00012582126978750744 -2.4472885544167785e-17 6.631636223272251e-17 -2.4472885544167785e-17 -0.0002916760101719155 1.5661217805036996e-16 6.631636223272251e-17 1.5661217805036996e-16 -0.000291676010171696" pbc="T T T"
Si       1.87965023      -2.53458280       8.12341739
Si       1.87965023       3.57503558       6.32130033
Si       1.87965023      -1.04045276       1.93127413
Si       0.62940753       7.26192447       0.06457853
Si       0.62940753       1.15230608       1.86669559
Si       0.62940753       5.76779442       6.25672179
Si       0.64628174       0.30612588       4.08133637
Si       0.64628174      -1.34586360       5.88221495
Si       0.64628174       1.03973774       6.41244052
Si       1.86277602       4.42121578       4.10665955
Si       1.86277602       6.07320526       2.30578097
Si       1.86277602       3.68760393       1.77555540
12
Lattice="2.5086680258521064 -3.6546861220881884e-21 2.1100389230280964e-21 1.3547543418635669e-20 9.453173571742687 -5.406089221755652e-13 -1.3547559353769322e-20 -4.726586785870875 8.18668845951312" Properties=species:S:1:pos:R:3 unique_starting_index=66 config_type=initial n_minim_iter=4 stress="-6.815128399178116e-05 4.1035728790505236e-17 2.04748640534428e-17 4.1035728790505236e-17 -0.0002802160731103898 1.5325545199417453e-16 2.04748640534428e-17 1.5325545199417453e-16 -0.000280216073109365" pbc="T T T"
Si       1.88167541      -2.53304051       8.12069088
Si       1.88167541       3.57265808       6.32002045
Si       1.88167541      -1.03961755       1.93266558
Si       0.62699262       7.25962731       0.06599757
Si       0.62699262       1.15392872       1.86666801
Si       0.62699262       5.76620435       6.25402288
Si       0.63805244       0.30570850       4.08220557
Si       0.63805244      -1.34414730       5.88083435
Si       0.63805244       1.03843882       6.41033699
Si       1.87061559       4.42087830       4.10448289
Si       1.87061559       6.07073410       2.30585410
Si       1.87061559       3.68814798       1.77635147
12
Lattice="2.5083552136526652 -3.61815133659929e-21 2.0889455393988636e-21 1.3690385783897712e-20 9.457881974343568 -5.221092311600159e-13 -1.369040177525266e-20 -4.72894098717133 8.190766055776717" Properties=species:S:1:pos:R:3 unique_starting_index=66 config_type=initial n_minim_iter=5 stress="0.00013786998483280078 2.8902311877177366e-19 -8.324089004502581e-17 2.8902311877177366e-19 0.0006669112895989792 4.227995337461375e-17 -8.324089004502581e-17 4.227995337461375e-17 0.0006669112895995643" pbc="T T T"
Si       1.88227756      -2.53382892       8.12462596
Si       1.88227756       3.57410596       6.32281330
Si       1.88227756      -1.04027702       1.93409286
Si       0.62607765       7.26276992       0.06614010
Si       0.62607765       1.15483504       1.86795276
Si       0.62607765       5.76921802       6.25667320
Si       0.63402610       0.30609116       4.08326167
Si       0.63402610      -1.34577822       5.88405251
Si       0.63402610       1.03968708       6.41421793
Si       1.87432912       4.42284984       4.10750438
Si       1.87432912       6.07471922       2.30671355
Si       1.87432912       3.68925392       1.77654813
12
Lattice="2.5084341134191326 -3.649705864145922e-21 2.1071635671958875e-21 1.3566086254503154e-20 9.453893533502022 -5.070440049988094e-13 -1.356610219775234e-20 -4.72694676675057 8.187311964686442" Properties=species:S:1:pos:R:3 unique_starting_index=66 config_type=initial n_minim_iter=6 stress="-5.551089407559782e-06 1.7311808489693164e-16 5.86177306085476e-17 1.7311808489693164e-16 -6.266169711120598e-05 -1.1207572499388349e-16 5.86177306085476e-17 -1.1207572499388349e-16 -6.266169710988852e-05" pbc="T T T"
Si       1.88298822      -2.53256367       8.12108003
Si       1.88298822       3.57239669       6.32003643
Si       1.88298822      -1.03983301       1.93350747
Si       0.62544589       7.25951045       0.06623193
Si       0.62544589       1.15455009       1.86727554
Si       0.62544589       5.76677979       6.25380450
Si       0.63055647       0.30612443       4.08079994
Si       0.63055647      -1.34593255       5.88180046
Si       0.63055647       1.03980814       6.41202352
Si       1.87787764       4.42082235       4.10651202
Si       1.87787764       6.07287933       2.30551150
Si       1.87787764       3.68713864       1.77528844
12
Lattice="2.508517315215032 -3.638471505805351e-21 2.100677402764493e-21 1.361113635431208e-20 9.45544449699906 -4.990369488144701e-13 -1.361115231579496e-20 -4.727722248499096 8.188655138475216" Properties=species:S:1:pos:R:3 unique_starting_index=66 config_type=initial n_minim_iter=7 stress="-8.588289709809038e-05 4.051944326386122e-17 -3.6105108148819965e-17 4.051944326386122e-17 1.662137364994166e-05 7.430909085916687e-17 -3.6105108148819965e-17 7.430909085916687e-17 1.662137365067332e-05" pbc="T T T"
Si       1.88247153      -2.53445924       8.12240988
Si       1.88247153       3.57372068       6.32235629
Si       1.88247153      -1.03926142       1.93254410
Si       0.62604579       7.26218150       0.06624525
Si       0.62604579       1.15400158       1.86629885
Si       0.62604579       5.76698368       6.25611104
Si       0.62869108       0.30611672       4.08115705
Si       0.62869108      -1.34639492       5.88297176
Si       0.62869108       1.04027821       6.41318146
Si       1.87982624       4.42160554       4.10749809
Si       1.87982624       6.07411718       2.30568338
Si       1.87982624       3.68744405       1.77547367
