10
Lattice="10.00531234274786 8.810823775620004e-47 -5.798469098665859e-31 -1.0118094839976388e-46 5.121585581949925 -9.676573284852387e-16 4.624581228516715e-31 1.5076720081867663e-15 7.979757908232102" Properties=species:S:1:pos:R:3 unique_starting_index=27 config_type=initial n_minim_iter=1 energy=-1620.805087604465 free_energy=-1620.805087604465 pbc="T T T"
Si       0.52733172       0.56991278       6.93583325
Si       9.47798062       0.56991278       1.04392466
Si       5.52998789       0.56991278       1.04392466
Si       4.47532445       0.56991278       6.93583325
Si       9.38812434       3.35364390       1.02580629
Si       0.61718800       3.35364390       6.95395162
Si       4.38546817       3.35364390       6.95395162
Si       5.61984417       3.35364390       1.02580629
Si       2.50132809       4.62997869       6.50739728
Si       7.50398426       4.62997869       1.47236063
10
Lattice="9.904887417233628 9.60949046282158e-47 -5.737317767410837e-31 -9.664225745405741e-47 4.941934006956144 -9.945987025538814e-16 4.620891648864725e-31 1.4108533070223268e-15 7.9693303062549035" Properties=species:S:1:pos:R:3 unique_starting_index=27 config_type=initial n_minim_iter=2 stress="-0.011470487325463517 4.650625826401763e-18 3.51308804665944e-19 4.650625826401763e-18 -0.016500803251926634 8.627076975340903e-18 3.51308804665944e-19 8.627076975340903e-18 -0.0021026313416676818" pbc="T T T"
Si       0.52402914       0.58575156       6.91686354
Si       9.38085828       0.58575156       1.05246677
Si       5.47647285       0.58575156       1.05246677
Si       4.42841457       0.58575156       6.91686354
Si       9.29368870       3.20466631       1.01985023
Si       0.61119872       3.20466631       6.94948007
Si       4.34124499       3.20466631       6.94948007
Si       5.56364243       3.20466631       1.01985023
Si       2.47622185       4.45859318       6.50785231
Si       7.42866556       4.45859318       1.46147800
10
Lattice="10.072526040924885 8.64232862735521e-47 -5.842880473887185e-31 -9.535106346388931e-47 4.8645695494404055 -8.891766138765e-16 4.633146215561489e-31 1.557923232558823e-15 8.002044105012425" Properties=species:S:1:pos:R:3 unique_starting_index=27 config_type=initial n_minim_iter=3 stress="-0.00019757498951087108 1.0286026468839876e-17 -6.998388866720038e-17 1.0286026468839876e-17 -0.010795849878063693 -6.99042509129957e-19 -6.998388866720038e-17 -6.99042509129957e-19 0.005144311055568055" pbc="T T T"
Si       0.53482066       0.65004354       6.92484311
Si       9.53770538       0.65004354       1.07720100
Si       5.57108368       0.65004354       1.07720100
Si       4.50144236       0.65004354       6.92484311
Si       9.45179420       3.08990519       1.01531312
Si       0.62073184       3.08990519       6.98673099
Si       4.41553118       3.08990519       6.98673099
Si       5.65699486       3.08990519       1.01531312
Si       2.51813151       4.37105792       6.55185977
Si       7.55439453       4.37105792       1.45018434
10
Lattice="9.866942984325847 1.1334618743653287e-46 -5.640763694460179e-31 -1.0653028992627027e-46 4.990936150451665 -1.3051793157865213e-15 4.47329412050707e-31 8.80720890332117e-16 7.612102230161123" Properties=species:S:1:pos:R:3 unique_starting_index=27 config_type=initial n_minim_iter=4 stress="-0.00501117599040836 2.8437390550122557e-17 -2.5785295855460218e-17 2.8437390550122557e-17 -0.009343452301917328 -2.864518688896245e-17 -2.5785295855460218e-17 -2.864518688896245e-17 -0.00516307801756352" pbc="T T T"
Si       0.52236000       0.74365835       6.57397080
Si       9.34458299       0.74365835       1.03813143
Si       5.45583149       0.74365835       1.03813143
Si       4.41111149       0.74365835       6.57397080
Si       9.26115385       3.10259390       0.95472469
Si       0.60578914       3.10259390       6.65737754
Si       4.32768235       3.10259390       6.65737754
Si       5.53926063       3.10259390       0.95472469
Si       2.46673575       4.46630234       6.25407771
Si       7.40020724       4.46630234       1.35802452
10
Lattice="9.686621869900506 1.4017475957446248e-46 -5.5472793628049125e-31 -1.0997633351039389e-46 5.149331917881407 -1.57953201752416e-15 4.412318765669101e-31 4.572294151631087e-16 7.521739578967324" Properties=species:S:1:pos:R:3 unique_starting_index=27 config_type=initial n_minim_iter=5 stress="-0.0002505139602036744 7.793646926988884e-17 2.732600920009518e-17 7.793646926988884e-17 -0.0030403139940418126 -1.3861823279506827e-17 2.732600920009518e-17 -1.3861823279506827e-17 -0.00271020422548238" pbc="T T T"
Si       0.51402503       0.84581484       6.48095078
Si       9.17259684       0.84581484       1.04078880
Si       5.35733596       0.84581484       1.04078880
Si       4.32928591       0.84581484       6.48095078
Si       9.08637863       3.13082458       0.94260328
Si       0.60024324       3.13082458       6.57913630
Si       4.24306769       3.13082458       6.57913630
Si       5.44355417       3.13082458       0.94260328
Si       2.42165547       4.59140824       6.20467663
Si       7.26496640       4.59140824       1.31706295
10
Lattice="9.657910244749075 1.420821410404535e-46 -5.554607071159558e-31 -1.0940815232132625e-46 5.190095520292437 -1.585083490018181e-15 4.419400459722795e-31 4.673046221806513e-16 7.566186585524016" Properties=species:S:1:pos:R:3 unique_starting_index=27 config_type=initial n_minim_iter=6 stress="0.0012263390569699393 7.469807875888378e-17 6.034000414330143e-17 7.469807875888378e-17 0.004541997714085 -5.937031941934904e-18 6.034000414330143e-17 -5.937031941934904e-18 -0.0008544658359918673" pbc="T T T"
Si       0.51304464       0.84181821       6.52209111
Si       9.14486560       0.84181821       1.04409547
Si       5.34199977       0.84181821       1.04409547
Si       4.31591048       0.84181821       6.52209111
Si       9.05635403       3.16458123       0.95255899
Si       0.60155621       3.16458123       6.61362760
Si       4.22739891       3.16458123       6.61362760
Si       5.43051133       3.16458123       0.95255899
Si       2.41447756       4.63119556       6.24073534
Si       7.24343268       4.63119556       1.32545125
10
Lattice="9.652742074092862 1.3462806210103033e-46 -5.571914930780132e-31 -1.0953450817648212e-46 5.160147842967414 -1.5347678952822626e-15 4.438222678828528e-31 5.603546585369866e-16 7.625799576322804" Properties=species:S:1:pos:R:3 unique_starting_index=27 config_type=initial n_minim_iter=7 stress="0.00037263083027403327 9.567083941946294e-17 3.2224827006651945e-17 9.567083941946294e-17 2.734001328023076e-05 -1.7327238330957692e-17 3.2224827006651945e-17 -1.7327238330957692e-17 0.0025000225363679073" pbc="T T T"
Si       0.51443616       0.83351982       6.57641862
Si       9.13830592       0.83351982       1.04938096
Si       5.34080719       0.83351982       1.04938096
Si       4.31193488       0.83351982       6.57641862
Si       9.04452905       3.14775975       0.96837818
Si       0.60821303       3.14775975       6.65742140
Si       4.21815801       3.14775975       6.65742140
Si       5.43458406       3.14775975       0.96837818
Si       2.41318552       4.60847745       6.29326631
Si       7.23955656       4.60847745       1.33253327
10
Lattice="9.604973763499986 1.685246830247452e-46 -5.516353770273538e-31 -1.0960786941767761e-46 5.204477811972406 -1.815657959196952e-15 4.368308067850764e-31 8.045336193779436e-17 7.468397835695481" Properties=species:S:1:pos:R:3 unique_starting_index=27 config_type=initial n_minim_iter=8 stress="-0.0007358201856666988 7.926668328542045e-17 1.256185664690645e-16 7.926668328542045e-17 -0.0010524324681625043 2.3437136264545753e-17 1.256185664690645e-16 2.3437136264545753e-17 0.0012311705557939653" pbc="T T T"
Si       0.51777339       0.85796527       6.44777849
Si       9.08720037       0.85796527       1.02061935
Si       5.32026027       0.85796527       1.02061935
Si       4.28471349       0.85796527       6.44777849
Si       8.97775714       3.15262753       0.97023560
Si       0.62721662       3.15262753       6.49816223
Si       4.17527026       3.15262753       6.49816223
Si       5.42970351       3.15262753       0.97023560
Si       2.40124344       4.65784666       6.18567046
Si       7.20373032       4.65784666       1.28272737
10
Lattice="9.75893267072419 1.9755759818802934e-46 -5.627156997976507e-31 -1.1362504240078206e-46 5.213294745818507 -2.140604734994138e-15 4.198031247567864e-31 -5.264614770723442e-16 7.21175913549069" Properties=species:S:1:pos:R:3 unique_starting_index=27 config_type=initial n_minim_iter=9 stress="-0.000703282264072615 7.059133413340936e-17 1.2463984938566364e-16 7.059133413340936e-17 0.00252155626957859 -3.309576935578888e-19 1.2463984938566364e-16 -3.309576935578888e-19 -0.004303388589415016" pbc="T T T"
Si       0.54640599       0.84789202       6.22086676
Si       9.21252668       0.84789202       0.99089237
Si       5.42587232       0.84789202       0.99089237
Si       4.33306035       0.84789202       6.22086676
Si       9.10949397       3.15966472       0.94454919
Si       0.64943870       3.15966472       6.26720994
Si       4.23002763       3.15966472       6.26720994
Si       5.52890504       3.15966472       0.94454919
Si       2.43973317       4.68539839       5.99340646
Si       7.31919950       4.68539839       1.21835268
10
Lattice="9.925605410065922 2.2646693817188007e-46 -5.918169940545202e-31 -1.3033985443903253e-46 5.187807537714265 -2.742964182637436e-15 3.993256781158956e-31 -1.4968023319375538e-15 7.136269711043102" Properties=species:S:1:pos:R:3 unique_starting_index=27 config_type=initial n_minim_iter=10 stress="0.0015025799611993239 6.8238024324423e-17 8.916345062871293e-17 6.8238024324423e-17 0.0009569400277396388 1.8127977890601207e-18 8.916345062871293e-17 1.8127977890601207e-18 -8.808872920694957e-05" pbc="T T T"
Si       0.58547553       0.83432188       6.14128902
Si       9.34012988       0.83432188       0.99498069
Si       5.54827823       0.83432188       0.99498069
Si       4.37732718       0.83432188       6.14128902
Si       9.25445339       3.14531395       0.93719099
Si       0.67115202       3.14531395       6.19907872
Si       4.29165068       3.14531395       6.19907872
Si       5.63395473       3.14531395       0.93719099
Si       2.48140135       4.67914886       5.95697677
Si       7.44420406       4.67914886       1.17929295
10
Lattice="9.815551278448416 2.5305134574782977e-46 -6.093261991004264e-31 -1.445587322438915e-46 5.224571623875707 -3.2757433308843443e-15 3.803730157572615e-31 -2.340588024901277e-15 7.130381422223965" Properties=species:S:1:pos:R:3 unique_starting_index=27 config_type=initial n_minim_iter=11 stress="-0.00033994692937538875 5.478441164109836e-17 -2.4377461046800092e-17 5.478441164109836e-17 -0.001026734726074609 -8.316374275574692e-18 -2.4377461046800092e-17 -8.316374275574692e-18 0.0006855469199655307" pbc="T T T"
Si       0.58481134       0.85915589       6.13326493
Si       9.23073994       0.85915589       0.99711649
Si       5.49258698       0.85915589       0.99711649
Si       4.32296430       0.85915589       6.13326493
Si       9.14303793       3.15201730       0.93904694
Si       0.67251335       3.15201730       6.19133448
Si       4.23526229       3.15201730       6.19133448
Si       5.58028899       3.15201730       0.93904694
Si       2.45388782       4.70563797       5.97181410
Si       7.36166346       4.70563797       1.15856732
10
Lattice="9.870048118747286 2.594083889343674e-46 -6.4177696221934885e-31 -1.4682969261717423e-46 5.245973735420834 -3.4931771676127115e-15 3.4893299515398134e-31 -2.7586342979209204e-15 7.015929141831187" Properties=species:S:1:pos:R:3 unique_starting_index=27 config_type=initial n_minim_iter=12 stress="-0.0034168891376335753 8.891906404338422e-17 -2.989331048943433e-17 8.891906404338422e-17 0.0010744501651806075 1.9573910494599254e-17 -2.989331048943433e-17 1.9573910494599254e-17 0.00018930787115634083" pbc="T T T"
Si       0.62115753       0.85724739       6.02990673
Si       9.24889059       0.85724739       0.98602241
Si       5.55618159       0.85724739       0.98602241
Si       4.31386653       0.85724739       6.02990673
Si       9.17033512       3.18173131       0.91619443
Si       0.69971300       3.18173131       6.09973471
Si       4.23531106       3.18173131       6.09973471
Si       5.63473706       3.18173131       0.91619443
Si       2.46751203       4.70216630       5.95541586
Si       7.40253609       4.70216630       1.06051328
10
Lattice="10.119621212001826 2.346825572729e-46 -7.072939405256046e-31 -1.5445667293615547e-46 5.249413228203432 -3.692315476781122e-15 2.8887196403223027e-31 -3.227909047074361e-15 6.787371727371049" Properties=species:S:1:pos:R:3 unique_starting_index=27 config_type=initial n_minim_iter=13 stress="-0.001195852737990683 1.129990632832234e-16 2.6990843931317304e-16 1.129990632832234e-16 0.0023679605055071415 -1.621375116729756e-18 2.6990843931317304e-16 -1.621375116729756e-18 0.0008653563240689678" pbc="T T T"
Si       0.68689007       0.86200670       5.83038742
Si       9.43273115       0.86200670       0.95698431
Si       5.74670067       0.86200670       0.95698431
Si       4.37292054       0.86200670       5.83038742
Si       9.36246690       3.19882906       0.87532236
Si       0.75715431       3.19882906       5.91204937
Si       4.30265630       3.19882906       5.91204937
Si       5.81696492       3.19882906       0.87532236
Si       2.52990530       4.66683138       5.89371145
Si       7.58971591       4.66683138       0.89366028
10
Lattice="10.366602752913806 2.6073559935268735e-46 -7.868350012948534e-31 -1.71673322920956e-46 5.233942128218986 -4.383018145742747e-15 2.1627930012939346e-31 -4.444655196255058e-15 6.591840760158161" Properties=species:S:1:pos:R:3 unique_starting_index=27 config_type=initial n_minim_iter=14 stress="0.0025221574232773647 2.7563419689885135e-16 3.687400553542354e-16 2.7563419689885135e-16 0.002454209659817003 -7.003665061051692e-18 3.687400553542354e-16 -7.003665061051692e-18 0.0015134074754452173" pbc="T T T"
Si       0.74363515       0.86448004       5.66621073
Si       9.62296761       0.86448004       0.92563003
Si       5.92693652       0.86448004       0.92563003
Si       4.43966623       0.86448004       5.66621073
Si       9.55974820       3.20287081       0.83655163
Si       0.80685455       3.20287081       5.75528913
Si       4.37644683       3.20287081       5.75528913
Si       5.99015593       3.20287081       0.83655163
Si       2.59165069       4.61611087       5.85267425
Si       7.77495206       4.61611087       0.73916651
10
Lattice="10.645515083663156 3.861224116165184e-46 -8.884189662931193e-31 -2.111667804896831e-46 5.188969240191846 -5.9668612573624056e-15 1.2191044209012246e-31 -7.071118673918176e-15 6.400061875781798" Properties=species:S:1:pos:R:3 unique_starting_index=27 config_type=initial n_minim_iter=15 stress="0.00663553686015859 1.3052379211448292e-16 5.410482404375165e-16 1.3052379211448292e-16 0.0008372699558199365 -8.698774050221096e-17 5.410482404375165e-16 -8.698774050221096e-17 -0.0003482722836709345" pbc="T T T"
Si       0.79696558       0.86544051       5.52168646
Si       9.84854950       0.86544051       0.87837541
Si       6.11972312       0.86544051       0.87837541
Si       4.52579196       0.86544051       5.52168646
Si       9.79281839       3.19480665       0.78539736
Si       0.85269669       3.19480665       5.61466452
Si       4.47006085       3.19480665       5.61466452
Si       6.17545423       3.19480665       0.78539736
Si       2.66137877       4.52075630       5.86977263
Si       7.98413631       4.52075630       0.53028924
10
Lattice="10.82469619320675 3.6911103796613336e-46 -9.697338699447729e-31 -2.1825197426943972e-46 5.10794731447483 -6.403140957996675e-15 5.64784469730691e-32 -7.687901227332228e-15 6.379120892996779" Properties=species:S:1:pos:R:3 unique_starting_index=27 config_type=initial n_minim_iter=16 stress="0.0072251299166581065 3.362697932598516e-17 9.231558816225715e-16 3.362697932598516e-17 -0.0027819537446783092 -7.495355996583932e-17 9.231558816225715e-16 -7.495355996583932e-17 -0.006503128869351284" pbc="T T T"
Si       0.81082970       0.85672060       5.54936439
Si      10.01386649       0.85672060       0.82975650
Si       6.22317780       0.85672060       0.82975650
Si       4.60151839       0.85672060       5.54936439
Si       9.96229489       3.17228178       0.74280865
Si       0.86240130       3.17228178       5.63631224
Si       4.54994680       3.17228178       5.63631224
Si       6.27474940       3.17228178       0.74280865
Si       2.70617405       4.38586207       6.06838678
Si       8.11852214       4.38586207       0.31073412
10
Lattice="10.87646901520897 5.267750692861533e-46 -1.0245272678581728e-30 -2.2224947267271653e-46 5.049547094031974 -7.400414090931984e-15 2.6895431612910605e-32 -9.016781414003268e-15 6.492636298843701" Properties=species:S:1:pos:R:3 unique_starting_index=27 config_type=initial n_minim_iter=17 stress="0.009525758387655417 -1.372652940440117e-17 9.56193399207228e-16 -1.372652940440117e-17 -0.00221029717381721 -1.4944797603504444e-16 9.56193399207228e-16 -1.4944797603504444e-16 -0.008649863033742905" pbc="T T T"
Si       0.81868861       0.83922011       5.70056189
Si      10.05778040       0.83922011       0.79207441
Si       6.25692312       0.83922011       0.79207441
Si       4.61954589       0.83922011       5.70056189
Si      10.01257472       3.16464646       0.72552273
Si       0.86389430       3.16464646       5.76711357
Si       4.57434021       3.16464646       5.76711357
Si       6.30212881       3.16464646       0.72552273
Si       2.71911725       4.29386038       6.40155749
Si       8.15735176       4.29386038       0.09107881
10
Lattice="10.617358839683025 3.8049390915185116e-46 -1.0762752229870662e-30 -2.2000167294676123e-46 5.035015104427859 -7.134757084594533e-15 1.9495864580499478e-32 -8.191872634367132e-15 6.7675261688269055" Properties=species:S:1:pos:R:3 unique_starting_index=27 config_type=initial n_minim_iter=18 stress="0.004516209646592999 1.1633720461063196e-16 7.920387252899426e-16 1.1633720461063196e-16 -0.0008629596454358525 -2.521897888945364e-16 7.920387252899426e-16 -2.521897888945364e-16 -0.0060765237617195576" pbc="T T T"
Si       0.79906387       0.81675472       5.98891886
Si       9.81829497       0.81675472       0.77860731
Si       6.10774329       0.81675472       0.77860731
Si       4.50961555       0.81675472       5.98891886
Si       9.77815845       3.16749898       0.75601532
Si       0.83920038       3.16749898       6.01151085
Si       4.46947903       3.16749898       6.01151085
Si       6.14787980       3.16749898       0.75601532
Si       2.65433971       4.29768361       6.80756523
Si       7.96301913       4.29768361      -0.04003906
10
Lattice="10.511387826460918 5.259238949564233e-46 -1.0853265693929442e-30 -2.2045803708949078e-46 5.043845157774648 -7.795957255187412e-15 1.4898521956947632e-32 -9.201765808451987e-15 6.789814046173508" Properties=species:S:1:pos:R:3 unique_starting_index=27 config_type=initial n_minim_iter=19 stress="0.015006298990988483 1.8699206107662963e-16 2.6351352011366926e-16 1.8699206107662963e-16 0.00570775344390729 -3.0392024370515323e-16 2.6351352011366926e-16 -3.0392024370515323e-16 0.003996967445402491" pbc="T T T"
Si       0.84733691       0.77957927       6.02692662
Si       9.66405091       0.77957927       0.76288742
Si       6.10303083       0.77957927       0.76288742
Si       4.40835700       0.77957927       6.02692662
Si       9.65618499       3.17310227       0.78776795
Si       0.85520284       3.17310227       6.00204609
Si       4.40049108       3.17310227       6.00204609
Si       6.11089675       3.17310227       0.78776795
Si       2.62784696       4.38233951       6.94870610
Si       7.88354087       4.38233951      -0.15889205
10
Lattice="10.293369839163093 5.2443404730416394e-46 -1.1045247631412294e-30 -2.2053642420860515e-46 5.052066544741893 -7.947047913371093e-15 1.2609978630836767e-32 -9.287077128047669e-15 6.894693869562341" Properties=species:S:1:pos:R:3 unique_starting_index=27 config_type=initial n_minim_iter=20 stress="0.007317421945306295 1.984566324990989e-16 2.8721082930661423e-16 1.984566324990989e-16 0.002315148683308493 -3.9071800768978626e-16 2.8721082930661423e-16 -3.9071800768978626e-16 0.0026468247348110565" pbc="T T T"
Si       0.82761229       0.75944752       6.11513830
Si       9.46575755       0.75944752       0.77955557
Si       5.97429721       0.75944752       0.77955557
Si       4.31907263       0.75944752       6.11513830
Si       9.46637209       3.16772331       0.82617874
Si       0.82699775       3.16772331       6.06851513
Si       4.31968717       3.16772331       6.06851513
Si       5.97368267       3.16772331       0.82617874
Si       2.57334246       4.45338968       6.96876660
Si       7.72002738       4.45338968      -0.07407273
10
Lattice="10.128859437971212 5.692276468100657e-46 -1.1016725762606892e-30 -2.208208295972946e-46 5.071244720426137 -8.135829993231364e-15 1.1805607178181769e-32 -9.645147411373847e-15 6.872299109850572" Properties=species:S:1:pos:R:3 unique_starting_index=27 config_type=initial n_minim_iter=21 stress="0.004499940757800079 2.1107240423350755e-16 2.4961693952688985e-16 2.1107240423350755e-16 0.0019322046954823185 -4.695938638799154e-16 2.4961693952688985e-16 -4.695938638799154e-16 0.0032196584400709253" pbc="T T T"
Si       0.84471458       0.75171606       6.08754472
Si       9.28414486       0.75171606       0.78475439
Si       5.90914430       0.75171606       0.78475439
Si       4.21971514       0.75171606       6.08754472
Si       9.31084840       3.18031333       0.82368163
Si       0.81801104       3.18031333       6.04861748
Si       4.24641868       3.18031333       6.04861748
Si       5.88244076       3.18031333       0.82368163
Si       2.53221486       4.49039402       6.97581484
Si       7.59664458       4.49039402      -0.10351573
