10
Lattice="7.76889433453964 -0.3922219253729766 -0.17501768666060008 -3.9169751743432566 4.504595185714246 1.3116614023391053 -2.0562403731196865 -0.8457696311224698 5.693072737721794" Properties=species:S:1:pos:R:3 unique_starting_index=21 config_type=initial n_minim_iter=1 energy=-1626.9584037549107 free_energy=-1626.9584037549107 pbc="T T T"
Si       2.42785587       0.98223527       5.60247618
Si      -0.16470790      -0.10727100       3.96078235
Si      -1.02705696       1.87334901       2.66708311
Si       1.02338739       4.60072145       2.99097350
Si       1.40833624       1.04092326       2.47939111
Si      -1.16648445       3.17745949       6.17248374
Si       2.66074802       2.91798356       3.18106073
Si      -2.94260174       1.62118908       6.08495870
Si       0.04018337       1.10600110       6.06149285
Si      -0.95361643       3.82003831       3.94517377
10
Lattice="7.8017240293568735 -0.3823224532149487 -0.14386859334284344 -3.9229756084540113 4.500867490614508 1.3001669452727593 -2.043141087286664 -0.8463902572716996 5.696242437608514" Properties=species:S:1:pos:R:3 unique_starting_index=21 config_type=initial n_minim_iter=2 stress="0.003114130093228683 0.0004978252948410022 0.0003669335047960558 0.0004978252948410022 0.0029228034487587947 0.0001404115552037932 0.0003669335047960558 0.0001404115552037932 0.0026184501241270502" pbc="T T T"
Si       2.46392090       0.98755517       5.62439821
Si      -0.14968208      -0.10647390       3.96712583
Si      -1.01513960       1.87419179       2.67058533
Si       1.04360332       4.60280154       3.00090595
Si       1.42627152       1.04641313       2.48705411
Si      -1.14042910       3.17503259       6.18288151
Si       2.68965903       2.91868882       3.20622272
Si      -2.93233190       1.62649295       6.08349785
Si       0.06403860       1.11009491       6.07760769
Si      -0.93510635       3.82000304       3.94902570
10
Lattice="7.800890904340843 -0.37587143914465465 -0.11431924987919835 -3.9152459921350173 4.479928382930531 1.28406616878414 -2.022193595478871 -0.843016987487317 5.6787138369655406" Properties=species:S:1:pos:R:3 unique_starting_index=21 config_type=initial n_minim_iter=3 stress="0.0004669710473832543 0.00011604509800593914 0.0012630466493612621 0.00011604509800593914 -0.0013786171727154651 0.0002521799593899012 0.0012630466493612621 0.0002521799593899012 -0.00013994664296677607" pbc="T T T"
Si       2.48734423       0.98575005       5.62446408
Si      -0.13521055      -0.10573573       3.95822969
Si      -1.00024225       1.86674822       2.66395712
Si       1.05540292       4.58362847       2.99776291
Si       1.43702112       1.04652067       2.48420698
Si      -1.11313801       3.15756435       6.16969104
Si       2.70388167       2.90317851       3.21991952
Si      -2.91313960       1.62747602       6.05918801
Si       0.08499076       1.10833346       6.07084162
Si      -0.91605147       3.80319932       3.93744822
10
Lattice="7.771021501229726 -0.37456427171993095 -0.14753307718245537 -3.903812921714544 4.50173546403822 1.2894851949745276 -2.0396471941680825 -0.8611362621686729 5.680355028102008" Properties=species:S:1:pos:R:3 unique_starting_index=21 config_type=initial n_minim_iter=4 stress="-0.001093113817662436 -0.0007975010206935472 -0.0009661734834624012 -0.0007975010206935472 -0.00019059600528989495 -0.00030449856441819295 -0.0009661734834624012 -0.00030449856441819295 -0.00013643495030004658" pbc="T T T"
Si       2.45692474       0.98002659       5.60507168
Si      -0.15514806      -0.11496594       3.94960739
Si      -0.99906521       1.86725759       2.65891019
Si       1.04072228       4.60321185       2.96923046
Si       1.42551592       1.05504979       2.46156268
Si      -1.13037825       3.14965392       6.15780344
Si       2.67997488       2.89564264       3.22609717
Si      -2.94441825       1.65182610       6.04948442
Si       0.05619491       1.10307239       6.06107631
Si      -0.92664693       3.81560009       3.92516597
10
Lattice="7.790550800310679 -0.3098343156671936 -0.10224885929061264 -3.869882091274431 4.485064800761808 1.2646854530684808 -2.020331591335611 -0.8770810987349447 5.642713174519449" Properties=species:S:1:pos:R:3 unique_starting_index=21 config_type=initial n_minim_iter=5 stress="0.0011032244161242259 0.0040159697234679916 -0.0009078932701714616 0.0040159697234679916 0.001919603256782558 0.002269358991903206 -0.0009078932701714616 0.002269358991903206 -0.0022515992612789255" pbc="T T T"
Si       2.50007443       1.00608055       5.59731380
Si      -0.13306532      -0.10839816       3.93406322
Si      -0.96163002       1.85925620       2.63195635
Si       1.11051735       4.62633625       2.95361305
Si       1.45737302       1.07302258       2.45076618
Si      -1.06509302       3.14887012       6.12286809
Si       2.72465355       2.90614066       3.27006307
Si      -2.92599988       1.67937111       5.99971125
Si       0.10478230       1.10960030       6.03069604
Si      -0.87566485       3.82477444       3.90696809
10
Lattice="7.826909072444304 -0.2961238145236534 0.040519611274756784 -3.8588252159797656 4.479925033329148 1.1578729618800416 -1.9299757000826474 -0.9340605732512797 5.630599860598453" Properties=species:S:1:pos:R:3 unique_starting_index=21 config_type=initial n_minim_iter=6 stress="0.0033712768145026466 0.0017409782560423117 0.0015701102409224493 0.0017409782560423117 0.005550106325430657 -0.0011722609864318204 0.0015701102409224493 -0.0011722609864318204 0.002414816387697235" pbc="T T T"
Si       2.59900043       0.95709299       5.65347611
Si      -0.05941357      -0.13077280       3.95477228
Si      -0.89596618       1.82104349       2.57675314
Si       1.20411167       4.60461153       2.91361499
Si       1.52008426       1.05616597       2.45642667
Si      -0.94175051       3.08774295       6.08442957
Si       2.78414642       2.82494526       3.40201524
Si      -2.88081564       1.73242908       5.93041068
Si       0.22984320       1.05016983       6.02366412
Si      -0.80417678       3.79979241       3.86891435
10
Lattice="7.847939171857566 -0.3060817774470498 0.09278704099855484 -3.86826611566823 4.452785119906039 1.1348656642152604 -1.8956920845163021 -0.9221377841688615 5.624474337145542" Properties=species:S:1:pos:R:3 unique_starting_index=21 config_type=initial n_minim_iter=7 stress="-0.0010732593288541217 -0.0004256033748349602 0.0012466302550947503 -0.0004256033748349602 0.00011847029408591053 -0.0016128493389776302 0.0012466302550947503 -0.0016128493389776302 -0.0003689717986462295" pbc="T T T"
Si       2.62554441       0.94506465       5.68372392
Si      -0.03177787      -0.11608499       3.97199624
Si      -0.86816266       1.79330393       2.53962170
Si       1.25213421       4.55590564       2.90467659
Si       1.54697968       1.04053287       2.45626743
Si      -0.89611667       3.06187286       6.07646365
Si       2.78719654       2.73744370       3.52507027
Si      -2.90173426       1.83379958       5.90523911
Si       0.28633208       1.03349152       6.01292403
Si      -0.78405865       3.77246975       3.86674733
10
Lattice="7.9120525874912335 -0.30858361619381647 0.12412540694050836 -3.8981489694873583 4.417166228959966 1.1526288940100813 -1.8868211601213936 -0.8736482737519619 5.631351600936945" Properties=species:S:1:pos:R:3 unique_starting_index=21 config_type=initial n_minim_iter=8 stress="-0.00129161629427054 -0.00010888760411812182 0.0009358098343856798 -0.00010888760411812182 -0.005522089161748796 0.001578494917658372 0.0009358098343856798 0.001578494917658372 -0.0023488364898323595" pbc="T T T"
Si       2.65698110       0.97199327       5.73004319
Si      -0.01886329      -0.07948708       3.99747034
Si      -0.84556813       1.78094408       2.51506231
Si       1.30664825       4.50388033       2.92805494
Si       1.57702812       1.03710389       2.45566658
Si      -0.85917375       3.06103715       6.10502793
Si       2.79255441       2.64720484       3.70015811
Si      -2.96920504       1.99885510       5.90951407
Si       0.32758988       1.05356622       6.02644323
Si      -0.76313627       3.75107739       3.88683359
10
Lattice="7.921475508454251 -0.3173270223933306 0.10545611073886446 -3.910463436055356 4.42207854547668 1.1708335706750763 -1.9011732228247071 -0.8622263096831397 5.644418514339215" Properties=species:S:1:pos:R:3 unique_starting_index=21 config_type=initial n_minim_iter=9 stress="-0.0007749345355603109 0.00025668864694667264 0.0001637648723317348 0.00025668864694667264 -0.005715255119967926 0.002616956315492201 0.0001637648723317348 0.002616956315492201 -0.002351493745828347" pbc="T T T"
Si       2.64088523       0.98031368       5.73914606
Si      -0.03086935      -0.07093470       4.00993959
Si      -0.84711678       1.78526204       2.50240422
Si       1.31304999       4.49098738       2.93116635
Si       1.57470753       1.03143495       2.44717906
Si      -0.86602153       3.06935057       6.11664800
Si       2.76563197       2.60650582       3.76867331
Si      -3.01940088       2.08382055       5.92381562
Si       0.31882637       1.05876385       6.03102876
Si      -0.76530737       3.74960614       3.88745186
10
Lattice="7.886966800573408 -0.366758658264105 -0.02757024777436637 -3.940062456512935 4.4679571233179916 1.2510486086282901 -1.981935213167556 -0.8405044998708215 5.693622804040054" Properties=species:S:1:pos:R:3 unique_starting_index=21 config_type=initial n_minim_iter=10 stress="-0.0018515815779366052 -0.002605748713002528 -0.0037832499961192915 -0.002605748713002528 -0.0043957523088399755 0.0022579856462689933 -0.0037832499961192915 0.0022579856462689933 -0.00022443298717953503" pbc="T T T"
Si       2.53327334       0.99158355       5.71761080
Si      -0.10343558      -0.07015608       4.02376911
Si      -0.90663969       1.82613840       2.51932440
Si       1.23254666       4.49306099       2.95046377
Si       1.51454738       1.01457208       2.43305964
Si      -0.97492627       3.11920267       6.15553383
Si       2.65525073       2.59887573       3.74776969
Si      -3.11293082       2.14578457       6.01034960
Si       0.20666238       1.07830984       6.05306295
Si      -0.82606573       3.76541222       3.89470769
10
Lattice="7.872925651076117 -0.3449041718688081 0.002896090961300795 -3.9151172778861034 4.488213392219889 1.2078846015015756 -1.9609559464392845 -0.8888912678164136 5.682931642591967" Properties=species:S:1:pos:R:3 unique_starting_index=21 config_type=initial n_minim_iter=11 stress="0.0011283315133539338 -0.0005608867304896136 -0.0011421450730051562 -0.0005608867304896136 0.0027700760408106272 -0.00045676853718049835 -0.0011421450730051562 -0.00045676853718049835 0.0020759133450090703" pbc="T T T"
Si       2.55179243       0.97814786       5.71341111
Si      -0.09198440      -0.09736076       4.02073439
Si      -0.88988896       1.83860256       2.47918342
Si       1.26755857       4.49768011       2.92999257
Si       1.52212810       0.99368836       2.41668163
Si      -0.92184312       3.11618116       6.11477230
Si       2.64467536       2.56496758       3.78924214
Si      -3.09842414       2.19053838       5.97826735
Si       0.22992988       1.05291638       6.03973309
Si      -0.77725678       3.75990980       3.83751458
10
Lattice="7.864706711952195 -0.33846674849632136 0.005956444502546592 -3.9068810378847063 4.487889242463116 1.2016458175714095 -1.9577386395666705 -0.8955828585197626 5.675738958969072" Properties=species:S:1:pos:R:3 unique_starting_index=21 config_type=initial n_minim_iter=12 stress="0.0011239983195760596 -0.0008290208561957816 -0.0004802531437001962 -0.0008290208561957816 0.003565686179546469 -0.0014229010691356883 -0.0004802531437001962 -0.0014229010691356883 0.002528695676416593" pbc="T T T"
Si       2.55624642       0.97846185       5.70359848
Si      -0.08997347      -0.10495263       4.01296797
Si      -0.89715886       1.84744113       2.48001605
Si       1.26491249       4.50103934       2.93763018
Si       1.51676559       0.98534662       2.41912563
Si      -0.91551398       3.12533380       6.10461682
Si       2.64506761       2.58576764       3.74797389
Si      -3.06937017       2.15310438       5.97842638
Si       0.22638533       1.05342863       6.03889090
Si      -0.76978936       3.75839765       3.82717854
10
Lattice="7.86675208933411 -0.32994522096809786 0.017379690297653228 -3.901972930849171 4.469649173874119 1.2012284295399749 -1.9505973871055675 -0.8847234886670597 5.662026175544059" Properties=species:S:1:pos:R:3 unique_starting_index=21 config_type=initial n_minim_iter=13 stress="0.0007213672147568728 0.0006981952038184222 0.0004911260910002005 0.0006981952038184222 0.0001753274467657065 0.000356373092899388 0.0004911260910002005 0.000356373092899388 -4.958710884982428e-05" pbc="T T T"
Si       2.56844328       0.98929003       5.69556987
Si      -0.08209131      -0.10307192       4.00593364
Si      -0.90879598       1.85649571       2.46794690
Si       1.28129977       4.48361583       2.96328901
Si       1.51259447       0.96051224       2.42185653
Si      -0.89154831       3.14781766       6.09249488
Si       2.63656281       2.58880599       3.72792084
Si      -3.03720833       2.14534958       5.98455887
Si       0.22889553       1.06439506       6.04018898
Si      -0.75462974       3.74638217       3.81898107
10
Lattice="7.840135209278077 -0.34561410547396126 0.023996657610756623 -3.896759011874058 4.473211065636194 1.18268422504991 -1.9377930726065837 -0.8993222453404702 5.659440565756252" Properties=species:S:1:pos:R:3 unique_starting_index=21 config_type=initial n_minim_iter=14 stress="0.00028990675948793385 0.0020233330226761396 0.0013642522716949942 0.0020233330226761396 -0.0008113737938713884 0.0008175903366923258 0.0013642522716949942 0.0008175903366923258 -0.0018130136370035515" pbc="T T T"
Si       2.56312993       0.96531717       5.68500349
Si      -0.07476592      -0.11905989       4.00197401
Si      -0.92722839       1.85283121       2.43067309
Si       1.29834291       4.46291419       2.96516571
Si       1.49464851       0.90575080       2.40839803
Si      -0.85938242       3.16189608       6.06468140
Si       2.58971762       2.55052463       3.71955017
Si      -3.00883681       2.16297403       5.98999704
Si       0.21564739       1.05314587       6.04964169
Si      -0.75760019       3.73559312       3.80395135
10
Lattice="7.826702254827819 -0.3716084831270504 0.0009744438973780999 -3.9080437477014804 4.487467393605332 1.1907598878127639 -1.9479506484613716 -0.9004443280594588 5.6765101018379305" Properties=species:S:1:pos:R:3 unique_starting_index=21 config_type=initial n_minim_iter=15 stress="3.938501329934271e-06 0.000897599127383581 0.0005793314139836309 0.000897599127383581 -0.0007239656506688606 0.0005035784175625976 0.0005793314139836309 0.0005035784175625976 -0.0009942704643941382" pbc="T T T"
Si       2.54132161       0.95065667       5.68690162
Si      -0.08749496      -0.12481049       4.00696044
Si      -0.93567885       1.85209872       2.42811546
Si       1.27843805       4.45413681       2.95704261
Si       1.47882515       0.89330218       2.39607469
Si      -0.87388709       3.15869922       6.07379522
Si       2.55654874       2.52138258       3.73521159
Si      -3.03503721       2.19425947       6.00518251
Si       0.18760498       1.04953965       6.06571823
Si      -0.77888589       3.73519213       3.80694651
10
Lattice="7.812157758977384 -0.39431181970030843 -0.0190720654505313 -3.9164138640548276 4.502103132223569 1.195480193171898 -1.9562111835491096 -0.9048931494304195 5.691292406253241" Properties=species:S:1:pos:R:3 unique_starting_index=21 config_type=initial n_minim_iter=16 stress="-0.00038729916913852065 -0.00042723081054849525 -5.5514802156391086e-05 -0.00042723081054849525 -0.00015902001164909204 -0.00031285724201256606 -5.5514802156391086e-05 -0.00031285724201256606 5.557486983694221e-05" pbc="T T T"
Si       2.52211902       0.93467053       5.68717992
Si      -0.09817768      -0.13163956       4.00972091
Si      -0.93932902       1.84962167       2.43044771
Si       1.25563385       4.45071451       2.94353520
Si       1.46182716       0.88612311       2.38395676
Si      -0.88689348       3.15264473       6.08399630
Si       2.53192847       2.50433750       3.73619007
Si      -3.05273731       2.20561502       6.01673003
Si       0.16217879       1.04455362       6.07953157
Si      -0.80203239       3.73831841       3.81299121
10
Lattice="7.806227012896802 -0.4124141623431829 -0.042795508505157905 -3.9270299923748926 4.514128620609684 1.2082676183486145 -1.9695754325392953 -0.9022297292020158 5.706626545801908" Properties=species:S:1:pos:R:3 unique_starting_index=21 config_type=initial n_minim_iter=17 stress="0.0006484901953965689 -0.0006703523880592307 -0.0003419169531386023 -0.0006703523880592307 0.0007856869929963879 -0.00021938167746962794 -0.0003419169531386023 -0.00021938167746962794 0.001283094560638543" pbc="T T T"
Si       2.50213302       0.92749556       5.68895957
Si      -0.11034152      -0.13202942       4.01462672
Si      -0.93390758       1.84978139       2.44064119
Si       1.22884429       4.44743113       2.92805953
Si       1.43627789       0.88442711       2.36987123
Si      -0.89706714       3.15448725       6.10929541
Si       2.51103685       2.49904674       3.73213568
Si      -3.07113454       2.21323655       6.03617971
Si       0.13838148       1.04550146       6.09193026
Si      -0.83006277       3.74738188       3.83069198
10
Lattice="7.787985056596 -0.421736036732892 -0.06279787582603116 -3.9262052534653886 4.518876206332301 1.2158069474298596 -1.9783441896889802 -0.9021112964941297 5.7084030927901095" Properties=species:S:1:pos:R:3 unique_starting_index=21 config_type=initial n_minim_iter=18 stress="-0.00038536127238936635 0.0001692190333998796 -0.0006379037382748313 0.0001692190333998796 0.0003509432129293272 9.630028802325173e-05 -0.0006379037382748313 9.630028802325173e-05 -0.0003352177332222975" pbc="T T T"
Si       2.47628013       0.92616181       5.67716450
Si      -0.11964647      -0.13490869       4.01775002
Si      -0.93705530       1.85802495       2.42998279
Si       1.21770291       4.43269719       2.92258658
Si       1.40642503       0.86033335       2.35808774
Si      -0.89432821       3.17469356       6.11148061
Si       2.47236251       2.48959574       3.71875517
Si      -3.07114907       2.22589021       6.05353577
Si       0.12412339       1.04136082       6.08370008
Si      -0.84168858       3.74688164       3.82788144
10
Lattice="7.796761055927478 -0.4225073665715687 -0.04841855197339575 -3.92908019372922 4.512956769865246 1.2099545202893993 -1.969932592399969 -0.8995832766015778 5.707762733896328" Properties=species:S:1:pos:R:3 unique_starting_index=21 config_type=initial n_minim_iter=19 stress="0.00018333102671727147 0.00014171861750737392 3.679012211362063e-05 0.00014171861750737392 -1.3417057669286922e-05 0.00015573933719797772 3.679012211362063e-05 0.00015573933719797772 3.4035813720647867e-06" pbc="T T T"
Si       2.48833559       0.92654700       5.68519527
Si      -0.11276774      -0.13460704       4.02141001
Si      -0.93171556       1.85498112       2.43111289
Si       1.22253918       4.42643168       2.92497016
Si       1.41100823       0.86096740       2.36192768
Si      -0.88482289       3.17003406       6.11579006
Si       2.48240775       2.48740544       3.72504527
Si      -3.06396533       2.22213141       6.05171225
Si       0.13805224       1.03897124       6.08431319
Si      -0.83737024       3.74269842       3.83054087
10
Lattice="7.795169803422542 -0.4320366470882968 -0.034627772391369514 -3.931886469165348 4.509635512878982 1.1991260933567816 -1.9584537692350752 -0.9015742905356087 5.7084209450257015" Properties=species:S:1:pos:R:3 unique_starting_index=21 config_type=initial n_minim_iter=20 stress="-8.011516760175116e-05 -0.0005756919452463765 0.0006072995727226696 -0.0005756919452463765 -0.0007821162580073113 -0.0003120361395528938 0.0006072995727226696 -0.0003120361395528938 0.00024120012746528494" pbc="T T T"
Si       2.49730078       0.92662348       5.69100844
Si      -0.11031738      -0.14713977       4.02825398
Si      -0.92658900       1.85032375       2.42941747
Si       1.22026317       4.41379878       2.92112819
Si       1.40763532       0.85576293       2.35896616
Si      -0.87197779       3.15893246       6.11956835
Si       2.48036023       2.47587493       3.72813185
Si      -3.05382157       2.21819867       6.05105602
Si       0.15285388       1.02717277       6.07997747
Si      -0.83746040       3.73498155       3.82954931
10
Lattice="7.778124280114099 -0.42986829644789293 -0.04518520145681665 -3.9234920542396945 4.516850452059337 1.197405146975353 -1.962490194016781 -0.911458667237284 5.705031317027085" Properties=species:S:1:pos:R:3 unique_starting_index=21 config_type=initial n_minim_iter=21 stress="-0.0002548034926988075 -0.0003297029021047182 -0.0001765856059485336 -0.0003297029021047182 -0.0001298207505815552 -0.00013277947444315994 -0.0001765856059485336 -0.00013277947444315994 7.300651996340881e-05" pbc="T T T"
Si       2.49146872       0.93962284       5.67577303
Si      -0.12260643      -0.16966878       4.02607019
Si      -0.93314304       1.85226607       2.42232617
Si       1.21858213       4.42098492       2.91545324
Si       1.39532968       0.84879220       2.34477774
Si      -0.86610400       3.16157026       6.11075279
Si       2.45924541       2.47606617       3.71072739
Si      -3.04599195       2.21787244       6.05349336
Si       0.14518831       1.02155346       6.06963198
Si      -0.84156160       3.73953577       3.82314702
