22
Lattice="5.39809912520218 1.573042795128814 0.5138135117152324 4.204840996799384 7.043745927098888 1.0123091996527553 2.5806719485832628 3.148721379432048 13.386324878096662" Properties=species:S:1:pos:R:3 unique_starting_index=40 config_type=initial n_minim_iter=1 energy=-3578.7766853225894 free_energy=-3578.7766853225894 pbc="T T T"
Si       8.93185353       6.96490098      11.47454546
Si       2.67186735       3.92821022       4.84394227
Si       5.96712796       2.79581107       6.17933788
Si       6.28282567       7.28668726      11.55512309
Si       5.31331904       5.18914087      12.75779903
Si       8.30264744       7.92662649       6.59213005
Si       6.61529774       4.20116402       2.77298074
Si       7.31227385       7.69094538       8.94218816
Si       4.94543546       3.83726848       1.17624455
Si       7.82831594       8.62805423      12.93163571
Si       6.03886436       5.67826709       9.72377512
Si       5.18665179       8.81307460      10.02123602
Si       2.60659657       3.93181634       0.87567736
Si       2.30382225       2.84597632       6.99400235
Si       4.53008575       3.19680511      13.91712956
Si       9.66934175       8.17879434       8.91817160
Si       4.76512872       4.87093382       5.14802340
Si       6.46113457       8.42299365       4.97693768
Si       6.24636266       6.30706615       3.96554874
Si       4.67112762       4.10052851       7.72909517
Si       7.84977158       5.21775204      12.90641990
Si       4.72943721       2.59366102       3.88744540
22
Lattice="5.410549938679081 1.617881944654897 0.4803636778382455 4.253521840720712 7.095148780801896 0.9941796327955085 2.5111313078791637 3.1837929856154754 13.475394635345927" Properties=species:S:1:pos:R:3 unique_starting_index=40 config_type=initial n_minim_iter=2 stress="0.004975920685145018 0.003065753144931634 -0.0030150670440275127 0.003065753144931634 0.007597033054067947 -0.0007884249100481964 -0.0030150670440275127 -0.0007884249100481964 0.007154616576551526" pbc="T T T"
Si       8.91021373       7.05338599      11.51771823
Si       2.65825035       3.95757238       4.86192798
Si       5.94919171       2.84515522       6.17652711
Si       6.25380397       7.36468228      11.60422171
Si       5.27226749       5.26183369      12.82363930
Si       8.32148960       8.00588434       6.58536681
Si       6.63160379       4.26120731       2.75268309
Si       7.30815961       7.77294347       8.96018124
Si       4.96445041       3.87930551       1.15901096
Si       7.81390303       8.72608886      12.97722734
Si       6.02511698       5.75811488       9.75515570
Si       5.18107133       8.88092568      10.05716223
Si       2.63584014       3.95974431       0.85441445
Si       2.27775733       2.87633844       7.04948571
Si       4.46197280       3.23875351      13.98512760
Si       9.68373168       8.27604249       8.92880885
Si       4.76964197       4.92789227       5.16518649
Si       6.49327801       8.50427346       4.98247810
Si       6.26622842       6.36482736       3.95925986
Si       4.64726125       4.15509183       7.76606422
Si       7.80311293       5.29108933      12.95384010
Si       4.72359984       2.63744622       3.89028951
22
Lattice="5.378762172941436 1.6223936709680604 0.4664182670218669 4.245123783941285 7.050995238544448 0.9918224353288375 2.46591649142737 3.188462413710369 13.440797306401606" Properties=species:S:1:pos:R:3 unique_starting_index=40 config_type=initial n_minim_iter=3 stress="-0.006463756458960222 0.004937230191866175 -0.005088222590081645 0.004937230191866175 -0.002929823286237837 -0.0006295292482554444 -0.005088222590081645 -0.0006295292482554444 -0.0018362636919052495" pbc="T T T"
Si       8.84136936       7.03863893      11.49054552
Si       2.62766589       3.93630587       4.84607244
Si       5.90142093       2.84397985       6.13720262
Si       6.19551193       7.34837209      11.56904304
Si       5.22509345       5.27044741      12.78651208
Si       8.27328206       7.96747427       6.55464205
Si       6.59321497       4.24945896       2.73665382
Si       7.25482545       7.74833181       8.92508001
Si       4.93512491       3.85804572       1.15542959
Si       7.76064271       8.70972816      12.93212845
Si       5.98572370       5.76202845       9.71789831
Si       5.14136324       8.84021343      10.02016999
Si       2.63259443       3.93239428       0.83835268
Si       2.25223796       2.87379342       7.04783783
Si       4.40652629       3.24109989      13.93052093
Si       9.63013213       8.25065845       8.89812020
Si       4.73965339       4.91662359       5.15638130
Si       6.46234227       8.47011431       4.97543753
Si       6.22861749       6.32888823       3.94638015
Si       4.60408198       4.15318983       7.74860765
Si       7.73101022       5.28713863      12.90726249
Si       4.68802270       2.63643228       3.87718020
22
Lattice="5.412513135437018 1.5687617196613148 0.5281781586673305 4.226511619254581 6.979051951865708 1.0702708926936613 2.5899887390984135 3.215256272990646 13.505147279278322" Properties=species:S:1:pos:R:3 unique_starting_index=40 config_type=initial n_minim_iter=4 stress="-0.0011778221772020122 0.0017499470672083422 -5.636843839987907e-05 0.0017499470672083422 -0.003986909535051319 0.001217408937829633 -5.636843839987907e-05 0.001217408937829633 0.0001902711766903209" pbc="T T T"
Si       8.96430753       6.97074528      11.66142794
Si       2.64008773       3.90443351       4.89554411
Si       5.98383201       2.79278147       6.19772230
Si       6.28018678       7.32051397      11.68403833
Si       5.36206426       5.28424984      12.88801664
Si       8.33480532       7.86409781       6.67894818
Si       6.63616814       4.17940072       2.83006854
Si       7.32533107       7.68881159       9.03903799
Si       4.94262845       3.78721817       1.23699886
Si       7.88903132       8.67286265      13.06380356
Si       6.10127110       5.75621761       9.81226997
Si       5.19296307       8.79546305      10.10666905
Si       2.63318713       3.88197659       0.86002778
Si       2.31592311       2.87819086       7.13049356
Si       4.55825141       3.23618268      13.98912909
Si       9.73918604       8.16008699       9.05734293
Si       4.78508751       4.88433501       5.25466710
Si       6.48667686       8.40437470       5.10814995
Si       6.24980475       6.24145619       4.05257304
Si       4.67441899       4.13633354       7.84288373
Si       7.87294884       5.24077562      13.02984731
Si       4.73725895       2.59850392       3.95402297
22
Lattice="5.384951227123051 1.5178584652911855 0.5174961482458588 4.130891071353256 7.014168908329325 1.0229233455498805 2.5537183145326727 3.1479242550185087 13.363668364697157" Properties=species:S:1:pos:R:3 unique_starting_index=40 config_type=initial n_minim_iter=5 stress="-0.004062884260026175 -0.002751457216012248 -0.0002613138356382775 -0.002751457216012248 0.003187899599871524 -0.001362062568445596 -0.0002613138356382775 -0.001362062568445596 -0.0013657579812949411" pbc="T T T"
Si       8.86985003       6.87846807      11.54614746
Si       2.57436319       3.88477667       4.82848895
Si       5.93582146       2.70730926       6.11206712
Si       6.17313298       7.28567703      11.53346284
Si       5.30848995       5.23326681      12.73949448
Si       8.22593783       7.80676678       6.57133676
Si       6.57431581       4.13339598       2.78242288
Si       7.22244890       7.65500391       8.90108257
Si       4.88164823       3.75773313       1.21580831
Si       7.78883945       8.62514266      12.88912481
Si       6.04741936       5.72525941       9.68410278
Si       5.06725685       8.79414956       9.94153095
Si       2.58370713       3.89008378       0.81173023
Si       2.28229000       2.85453511       7.08029130
Si       4.52701846       3.12432443      13.82080184
Si       9.63662245       8.08957081       8.93900868
Si       4.71088953       4.86388791       5.20151494
Si       6.37380496       8.41564715       5.03122291
Si       6.15306107       6.21517089       3.98652636
Si       4.61577782       4.09293391       7.75897090
Si       7.80068091       5.12528017      12.88444464
Si       4.69462298       2.55165346       3.91606322
22
Lattice="5.465976607825077 1.5242326545247467 0.525412442017797 4.212526151036427 6.980104700590936 1.0356146298476945 2.617973096420861 3.1545663815636558 13.320537000062432" Properties=species:S:1:pos:R:3 unique_starting_index=40 config_type=initial n_minim_iter=6 stress="0.0034479291231342113 -0.0007046271802490151 0.001093362184880555 -0.0007046271802490151 9.672044499448311e-05 -0.002084349294096619 0.001093362184880555 -0.002084349294096619 -0.000633223286216531" pbc="T T T"
Si       9.03268724       6.87309866      11.54300555
Si       2.62299264       3.86386642       4.82100766
Si       6.02352895       2.70955836       6.09599874
Si       6.29189113       7.28447449      11.50465857
Si       5.42586171       5.23972676      12.70134064
Si       8.37450993       7.77350532       6.56689668
Si       6.68415184       4.12801035       2.78560624
Si       7.36697856       7.64692065       8.87528824
Si       4.96189049       3.74191357       1.22650532
Si       7.95348538       8.61215090      12.85974558
Si       6.18101086       5.73000081       9.65852611
Si       5.17100036       8.76945268       9.90807303
Si       2.63390973       3.87255451       0.80883952
Si       2.33628735       2.86046584       7.08119961
Si       4.62664240       3.12550558      13.76308513
Si       9.81382492       8.07298114       8.93427972
Si       4.78907063       4.85042663       5.21271204
Si       6.50085264       8.38865980       5.03998554
Si       6.25871040       6.19702472       3.98956192
Si       4.70295738       4.09286085       7.74459857
Si       7.94161553       5.12698913      12.85522671
Si       4.76838279       2.55710703       3.91832619
22
Lattice="5.499121942900373 1.5402667179943497 0.5548350488337317 4.250936049148042 6.9879415515034795 1.1571127374498869 2.643678322679292 3.3755128991043124 13.405328311698709" Properties=species:S:1:pos:R:3 unique_starting_index=40 config_type=initial n_minim_iter=7 stress="0.005379628412281212 -4.4673102416218515e-05 0.0011199906410424636 -4.4673102416218515e-05 0.0004120405635570793 0.0047719079521277505 0.0011199906410424636 0.0047719079521277505 0.0018156204221464786" pbc="T T T"
Si       9.10203612       7.06562515      11.71971864
Si       2.64116021       3.92226546       4.90355843
Si       6.03626996       2.80755089       6.15516733
Si       6.33605222       7.49775668      11.64860102
Si       5.48543640       5.45176046      12.80834165
Si       8.43668579       7.85489871       6.71201289
Si       6.73266685       4.17647982       2.85857061
Si       7.44704304       7.81078014       9.00149784
Si       4.99573421       3.75294735       1.29643983
Si       8.03691775       8.82253280      13.03388642
Si       6.26159059       5.90292490       9.76958866
Si       5.20467224       8.93436085      10.05570144
Si       2.65716288       3.88725817       0.86791654
Si       2.36540075       2.99482089       7.18188241
Si       4.67753551       3.33677583      13.82278388
Si       9.88984936       8.21429783       9.10180694
Si       4.80395668       4.92673356       5.33932069
Si       6.56501337       8.46819274       5.20400294
Si       6.29717488       6.26585261       4.10476923
Si       4.73781014       4.22424859       7.83433511
Si       7.99412763       5.33637406      12.97885518
Si       4.78858562       2.63404462       3.98296837
22
Lattice="5.5076332851444025 1.541143313579991 0.5641223003984822 4.266633267763406 6.969772087129064 1.147792489245287 2.6819665035032605 3.3276223731855157 13.43977223939312" Properties=species:S:1:pos:R:3 unique_starting_index=40 config_type=initial n_minim_iter=8 stress="0.004564508095302549 0.0018277036049995298 0.0016686346804352236 0.0018277036049995298 -0.0015235967078633904 0.0016094747541759637 0.0016686346804352236 0.0016094747541759637 0.0032494124782384308" pbc="T T T"
Si       9.14870977       7.02133080      11.77812223
Si       2.65712573       3.88188120       4.91740583
Si       6.03323639       2.78055437       6.17663189
Si       6.37227932       7.47355949      11.66458542
Si       5.53982809       5.40137703      12.82901691
Si       8.46781722       7.79808527       6.72219214
Si       6.75279775       4.16492312       2.86276891
Si       7.50916994       7.78913443       8.99485550
Si       5.00827300       3.73427156       1.29981022
Si       8.10048716       8.76577551      13.05930745
Si       6.32643311       5.87301912       9.78556739
Si       5.22812214       8.89614461      10.04791426
Si       2.66769606       3.88237804       0.85731627
Si       2.39736119       2.98637855       7.22976026
Si       4.73152026       3.27156542      13.84028189
Si       9.93026679       8.16560503       9.13201496
Si       4.80423091       4.89248340       5.37727693
Si       6.60161799       8.43631289       5.21474429
Si       6.31147109       6.24983980       4.10937751
Si       4.76285690       4.19497202       7.85349077
Si       8.03303467       5.28245510      13.02432181
Si       4.79249866       2.62959100       4.00573794
22
Lattice="5.519449294542311 1.5207403870209322 0.5426850928993652 4.247620161310103 6.97004104003896 1.121483111818486 2.6368788642387506 3.3127996603782233 13.334654327473519" Properties=species:S:1:pos:R:3 unique_starting_index=40 config_type=initial n_minim_iter=9 stress="0.002528992106837387 0.0010696429369681016 -4.847969536165895e-06 0.0010696429369681016 -0.0008393170028258006 0.00039127657250457936 -4.847969536165895e-06 0.00039127657250457936 0.0007793387845856444" pbc="T T T"
Si       9.11831044       6.99189033      11.68385349
Si       2.63087439       3.85980026       4.87875051
Si       5.99935331       2.74889083       6.11294653
Si       6.32248292       7.48105522      11.54819285
Si       5.50788708       5.37531881      12.70628501
Si       8.44002193       7.75546403       6.63991001
Si       6.75208043       4.14585674       2.81370197
Si       7.50131108       7.78807308       8.87947356
Si       5.00794339       3.71236466       1.27113906
Si       8.06282261       8.74069914      12.93629477
Si       6.31965868       5.86162251       9.68621525
Si       5.16161201       8.90087396       9.93982508
Si       2.66089032       3.88513068       0.83539429
Si       2.38190542       3.00000020       7.19609936
Si       4.70438227       3.23157575      13.70720107
Si       9.90268578       8.12522968       9.04082291
Si       4.76493830       4.87117741       5.34330210
Si       6.57696309       8.42526027       5.15801470
Si       6.28545934       6.24157926       4.05588318
Si       4.73282791       4.17934068       7.77844594
Si       7.99467774       5.24236785      12.91187845
Si       4.77238514       2.62179683       3.96810334
22
Lattice="5.500349960670158 1.4884565759296196 0.5483403448189933 4.191258367656207 6.974196272484797 1.1131657539371915 2.63611667617927 3.2873536784267317 13.274132725939397" Properties=species:S:1:pos:R:3 unique_starting_index=40 config_type=initial n_minim_iter=10 stress="-0.004163182094462263 -0.0007532215417895273 -0.000550832579529788 -0.0007532215417895273 0.00039905551657068965 -0.001955593927474727 -0.000550832579529788 -0.001955593927474727 -0.0010377844729633089" pbc="T T T"
Si       9.08277587       6.94820603      11.67069214
Si       2.59519424       3.81781676       4.86898417
Si       5.93981026       2.69427161       6.09196939
Si       6.27342231       7.50685822      11.47456635
Si       5.50319095       5.32574018      12.62775233
Si       8.37245792       7.68444698       6.60083498
Si       6.71967127       4.12020921       2.79859956
Si       7.50586862       7.79372577       8.79708615
Si       4.98004740       3.67292073       1.26381380
Si       8.02593961       8.70086804      12.88156844
Si       6.33253761       5.85046049       9.63077387
Si       5.07641747       8.91688373       9.87120359
Si       2.64543913       3.88925597       0.82168221
Si       2.39924294       3.03734064       7.21398073
Si       4.72334589       3.16337976      13.61673610
Si       9.84894599       8.04901670       9.03165478
Si       4.70442462       4.83814280       5.35139477
Si       6.51163939       8.40780488       5.14720260
Si       6.21977277       6.22552031       4.04078508
Si       4.68960015       4.15592462       7.74138681
Si       7.95981047       5.17413471      12.87562693
Si       4.71946777       2.61543906       3.96149938
22
Lattice="5.563282610659543 1.4763080670077557 0.5286839633175956 4.218341437343148 6.983780285643578 1.1090383479114028 2.6158656059841117 3.3351141764026044 13.07020177718611" Properties=species:S:1:pos:R:3 unique_starting_index=40 config_type=initial n_minim_iter=11 stress="-0.003910763941236306 -0.0016910718395112545 -0.0031067419964227803 -0.0016910718395112545 0.0019269800542682282 -0.00188250233876845 -0.0031067419964227803 -0.00188250233876845 -0.0035464315129819426" pbc="T T T"
Si       9.15169774       6.99371680      11.48967671
Si       2.56730220       3.80077751       4.81722155
Si       5.95959443       2.68095643       5.99360559
Si       6.29608063       7.61088512      11.27193635
Si       5.52167941       5.33116633      12.40767151
Si       8.41122099       7.67557855       6.46403820
Si       6.78547512       4.13418893       2.74655366
Si       7.61642115       7.85849241       8.63259533
Si       5.04501522       3.64346150       1.23138062
Si       8.04459668       8.73534157      12.70147639
Si       6.39943405       5.91426054       9.47297310
Si       5.04376440       8.99076678       9.75029931
Si       2.71362427       3.88306563       0.80946644
Si       2.45537183       3.14177057       7.14649111
Si       4.74805261       3.19382396      13.39003546
Si       9.94084294       8.00731162       8.94366134
Si       4.73118031       4.84625101       5.26182091
Si       6.50910886       8.40894475       5.09080532
Si       6.25059363       6.21861840       3.99177627
Si       4.65728330       4.18365410       7.61840924
Si       7.99349530       5.19386874      12.68860496
Si       4.70226500       2.65039148       3.87990538
22
Lattice="5.609032469541091 1.4862368545156692 0.5607199624442583 4.266613992915795 6.987801243725495 1.1632056589028743 2.7046879780436632 3.4097473868986494 13.033806183326302" Properties=species:S:1:pos:R:3 unique_starting_index=40 config_type=initial n_minim_iter=12 stress="-0.0031357920590980378 -0.0018811216408312192 -0.0018286853254017178 -0.0018811216408312192 0.0007016146483263499 -0.0008698785101600883 -0.0018286853254017178 -0.0008698785101600883 -0.0016680245519486159" pbc="T T T"
Si       9.29770900       7.07317546      11.51808803
Si       2.58269467       3.80300694       4.83583881
Si       6.02223981       2.69847488       6.00418825
Si       6.41117150       7.72060695      11.26483130
Si       5.64018156       5.38680607      12.38344155
Si       8.50324199       7.69593357       6.47629031
Si       6.85879056       4.16485890       2.78687942
Si       7.76786579       7.93730848       8.65036144
Si       5.10694283       3.62898852       1.26942795
Si       8.17107388       8.80896124      12.72988366
Si       6.53481725       6.00847841       9.48217792
Si       5.11580552       9.06802137       9.78183423
Si       2.78483074       3.87302582       0.82730752
Si       2.55911303       3.23601008       7.17900708
Si       4.87031371       3.26202690      13.35134813
Si      10.09557353       8.01387401       9.03326238
Si       4.80377871       4.87663035       5.27449836
Si       6.55767416       8.42599475       5.15640816
Si       6.31597062       6.22143219       4.04597036
Si       4.69396986       4.23463118       7.63079872
Si       8.11817854       5.25991054      12.69952386
Si       4.71637660       2.69744300       3.88518316
22
Lattice="5.698027945648447 1.560098368260913 0.6174930242411435 4.413110489765179 7.062509406817575 1.2481074873991673 2.897845919341273 3.5577749797419984 12.930034395691285" Properties=species:S:1:pos:R:3 unique_starting_index=40 config_type=initial n_minim_iter=13 stress="0.001006984986039781 0.0002612909368258226 0.0009932694517645986 0.0002612909368258226 -0.00015496592889760455 0.0017286614561154072 0.0009932694517645986 0.0017286614561154072 0.0010604902220699042" pbc="T T T"
Si       9.61214719       7.30175718      11.51054608
Si       2.66380280       3.87063824       4.84101303
Si       6.17705194       2.79840589       6.01123845
Si       6.69277466       7.93988401      11.23757781
Si       5.88899327       5.55309969      12.31886121
Si       8.74136392       7.86081410       6.48321894
Si       7.02139047       4.28640707       2.84940437
Si       8.05782775       8.14461684       8.68837514
Si       5.24480785       3.68073658       1.34297143
Si       8.46829279       9.03381372      12.73271100
Si       6.79950911       6.22213668       9.48431717
Si       5.35355651       9.26067136       9.80666497
Si       2.91711358       3.89884896       0.86005440
Si       2.73852130       3.37121799       7.17402760
Si       5.10537113       3.43281122      13.26756414
Si      10.42120407       8.16984449       9.13199851
Si       4.98463414       4.99118023       5.26351416
Si       6.72798620       8.54434653       5.23407920
Si       6.50330975       6.31317354       4.11890626
Si       4.83369927       4.36889149       7.63256131
Si       8.39465758       5.46508885      12.66271807
Si       4.79326852       2.81151043       3.88242226
22
Lattice="5.7908373747633854 1.5785983399061974 0.6293664900626068 4.504977177195152 7.079010227506698 1.2689625810254632 2.981152520924557 3.609520158296644 12.785252963697344" Properties=species:S:1:pos:R:3 unique_starting_index=40 config_type=initial n_minim_iter=14 stress="0.006043266824034055 0.0006000423636389888 0.0010495189815008237 0.0006000423636389888 -0.002625642197577881 0.0008359047028469503 0.0010495189815008237 0.0008359047028469503 0.0038836703816384384" pbc="T T T"
Si       9.82011161       7.36986720      11.42469289
Si       2.69005893       3.88049172       4.80585056
Si       6.25327207       2.80055383       5.96578937
Si       6.84481807       8.03741523      11.13227797
Si       6.04137981       5.60720135      12.17854211
Si       8.89741505       7.88641083       6.38173642
Si       7.15999776       4.31649588       2.83152159
Si       8.24548807       8.23929279       8.62338436
Si       5.36346838       3.66392301       1.38225875
Si       8.64759208       9.11176314      12.62551199
Si       7.00358541       6.32405531       9.40812835
Si       5.45132603       9.35807564       9.72200873
Si       3.00253312       3.89384571       0.84228344
Si       2.83447815       3.42747913       7.15836754
Si       5.25245053       3.46411147      13.10871876
Si      10.63577545       8.17693284       9.11126708
Si       5.07347313       5.01671917       5.21952982
Si       6.82844674       8.55989589       5.22397332
Si       6.63262270       6.33366837       4.11145805
Si       4.92463926       4.41600720       7.58669821
Si       8.56655184       5.52258705      12.52741644
Si       4.83166551       2.86616119       3.84582666
22
Lattice="5.831811546284383 1.6562089552763637 0.6560427925651431 4.602671834497936 7.215626752254897 1.2761537397099165 3.115244945292309 3.672259330848118 12.560808007292161" Properties=species:S:1:pos:R:3 unique_starting_index=40 config_type=initial n_minim_iter=15 stress="0.006717439795673593 0.0032157391504240005 0.001882217434169737 0.0032157391504240005 -0.0014822234326807473 9.253104953905563e-07 0.001882217434169737 9.253104953905563e-07 0.0020231041482480236" pbc="T T T"
Si      10.02075395       7.55290105      11.25230276
Si       2.75805861       3.96806939       4.73492051
Si       6.31235876       2.86611012       5.92077232
Si       7.04079850       8.20856661      10.97890089
Si       6.20797002       5.71508797      11.97601823
Si       9.03980248       8.08507397       6.24868687
Si       7.26927163       4.43624052       2.80522580
Si       8.41023166       8.45205166       8.54177592
Si       5.46304409       3.73692403       1.43329201
Si       8.83623144       9.31018540      12.44864879
Si       7.18879142       6.49124320       9.29668895
Si       5.62473714       9.58005803       9.59144009
Si       3.06772995       3.96221961       0.83079512
Si       2.92570463       3.46934654       7.05879865
Si       5.41925135       3.53630705      12.90741751
Si      10.80683156       8.34153617       9.03374904
Si       5.16997503       5.11844422       5.12068858
Si       6.93385141       8.69827135       5.16055887
Si       6.77484778       6.48229966       4.07769550
Si       5.05773320       4.51485181       7.49926482
Si       8.74678884       5.67862251      12.31140246
Si       4.86494303       2.97302658       3.78597609
22
Lattice="5.780246911021891 1.619798126738793 0.6355061891150054 4.506303776108405 7.244833394920805 1.2375831750472257 3.0395791120835853 3.6393187297300607 12.43944108531244" Properties=species:S:1:pos:R:3 unique_starting_index=40 config_type=initial n_minim_iter=16 stress="-0.0007787216754475786 -0.00044895722212025675 -0.0006870240158568827 -0.00044895722212025675 -0.0007935902717103886 -0.001409987689902497 -0.0006870240158568827 -0.001409987689902497 0.0006075283818406683" pbc="T T T"
Si       9.88558728       7.50908963      11.11298359
Si       2.69516198       3.97446591       4.68569490
Si       6.17417120       2.79050248       5.88988572
Si       6.91092915       8.22587991      10.86348493
Si       6.10623223       5.64619787      11.82811000
Si       8.87860934       8.07646956       6.09263076
Si       7.21032727       4.40097639       2.72966063
Si       8.28342813       8.47808807       8.44002428
Si       5.42233168       3.68719033       1.43718141
Si       8.66296531       9.27970510      12.31430202
Si       7.10507504       6.47562452       9.20264928
Si       5.47882520       9.66481548       9.49646836
Si       3.02000030       3.97393137       0.79388861
Si       2.86617193       3.44525709       7.01515414
Si       5.36629360       3.46101176      12.78280334
Si      10.62883980       8.25956853       8.93988530
Si       5.05661031       5.09070003       5.03320280
Si       6.76724953       8.66456524       5.06911347
Si       6.68517057       6.49334683       4.00851833
Si       4.98611611       4.47980466       7.42622986
Si       8.62388297       5.63651679      12.14098805
Si       4.75282806       2.98476750       3.72431466
22
Lattice="5.745893136586584 1.632806342659185 0.6424581343249388 4.475036545268437 7.321964620911625 1.2408232980521892 3.0444159404642273 3.676654758884663 12.362610820766951" Properties=species:S:1:pos:R:3 unique_starting_index=40 config_type=initial n_minim_iter=17 stress="-0.003100730624476468 -0.0007767761835007142 0.000576229905192428 -0.0007767761835007142 0.0034234482494507512 0.0014738201979268247 0.000576229905192428 0.0014738201979268247 -0.0031133654453638845" pbc="T T T"
Si       9.84195778       7.58747551      11.06273998
Si       2.71458592       4.03749158       4.65937876
Si       6.12517381       2.81608070       5.88498522
Si       6.87643595       8.31208104      10.82398514
Si       6.09098962       5.68053709      11.76239649
Si       8.82705415       8.20115328       6.08654680
Si       7.20448966       4.42889763       2.72238868
Si       8.23504779       8.55170322       8.39954619
Si       5.36623050       3.71469155       1.44107713
Si       8.63191575       9.35611132      12.26450221
Si       7.04460284       6.51872830       9.16327780
Si       5.50182427       9.78073502       9.48783553
Si       2.99799143       4.03425075       0.79629535
Si       2.83023125       3.44548040       6.95391810
Si       5.37217199       3.49795280      12.71249060
Si      10.56392096       8.35873501       8.88376793
Si       5.02632798       5.15028786       5.00416690
Si       6.71805941       8.74242769       5.03922186
Si       6.65293353       6.57278728       3.98293194
Si       4.98526435       4.50257188       7.36884765
Si       8.59876818       5.72095214      12.04639138
Si       4.73635527       3.01708112       3.71085928
22
Lattice="5.802547333163102 1.635543703355767 0.6335876525870565 4.509999178916575 7.3645562263668785 1.226797413862792 3.0646854137399666 3.7009501082168033 12.145504193591401" Properties=species:S:1:pos:R:3 unique_starting_index=40 config_type=initial n_minim_iter=18 stress="-0.001922578094411465 -0.0013769967737965914 0.002489599777537856 -0.0013769967737965914 0.0013695346019841326 0.0038235920311347513 0.002489599777537856 0.0038235920311347513 -0.007769953963223593" pbc="T T T"
Si       9.95115121       7.64766697      10.90799274
Si       2.71519222       4.06257534       4.58826456
Si       6.09247228       2.76617805       5.81603157
Si       6.90563018       8.45473937      10.64335092
Si       6.17418342       5.65046025      11.52957177
Si       8.86519846       8.28297083       5.93209170
Si       7.35295072       4.42629032       2.65892612
Si       8.34803109       8.63374848       8.22282204
Si       5.39377831       3.65294135       1.44668443
Si       8.70152076       9.38473518      12.09108011
Si       7.12540822       6.61311417       9.01606415
Si       5.56233480       9.93163820       9.40634131
Si       3.09515047       4.06533355       0.74514624
Si       2.87059034       3.48628504       6.88465835
Si       5.49005276       3.48238450      12.46253804
Si      10.68039680       8.32618444       8.77109420
Si       5.05022196       5.20029642       4.90141115
Si       6.67177410       8.74053443       4.96593006
Si       6.70028763       6.58643711       3.90848482
Si       5.00174906       4.50061359       7.23489719
Si       8.67728920       5.77897091      11.77446398
Si       4.70473385       3.08246555       3.63819415
22
Lattice="5.783624918382658 1.6053731273222582 0.5945763552830859 4.473421536807813 7.296954397124814 1.1727295396180395 2.960774665706742 3.602847063624545 12.24124247601266" Properties=species:S:1:pos:R:3 unique_starting_index=40 config_type=initial n_minim_iter=19 stress="-0.0026576576663921566 -0.0011331337462654634 -0.00043265327213549233 -0.0011331337462654634 -0.0016386699936316543 0.0018316286119241176 -0.00043265327213549233 0.0018316286119241176 -0.0014298768873062893" pbc="T T T"
Si       9.83695445       7.51496496      10.93854606
Si       2.66707246       4.01814940       4.59677876
Si       6.01760905       2.68622373       5.83369207
Si       6.78096819       8.33290134      10.68241584
Si       6.07401487       5.52222071      11.58767852
Si       8.77811044       8.20102603       5.89589885
Si       7.33571370       4.34838246       2.61208369
Si       8.24216544       8.49965585       8.20885473
Si       5.34646146       3.59102023       1.41701399
Si       8.57735949       9.22597589      12.13322379
Si       7.01404657       6.51536215       9.04013506
Si       5.47822135       9.81582247       9.45261755
Si       3.08784491       4.03195938       0.69856437
Si       2.79309994       3.40066447       6.92316212
Si       5.39926859       3.37197226      12.53950944
Si      10.58365557       8.19117252       8.74872600
Si       4.99156797       5.14562617       4.89046393
Si       6.57594705       8.62683150       4.93567261
Si       6.63996103       6.49396744       3.86747410
Si       4.93481976       4.40678207       7.25569390
Si       8.56511792       5.66785870      11.78928057
Si       4.65855991       3.03440481       3.63531644
22
Lattice="5.836018301757638 1.6300261626732682 0.5849892093588068 4.537197821676183 7.335945104254393 1.1311690311966258 2.9977680542354603 3.5527573874573815 12.170396246842865" Properties=species:S:1:pos:R:3 unique_starting_index=40 config_type=initial n_minim_iter=20 stress="0.0027457913404256165 0.00019195660106624277 0.0007307696748631618 0.00019195660106624277 0.0013727630765585982 -0.0014525488036306756 0.0007307696748631618 -0.0014525488036306756 0.002414669755924618" pbc="T T T"
Si       9.96051154       7.52545464      10.89474621
Si       2.66672832       4.01745122       4.55803845
Si       6.03182709       2.63542675       5.79802898
Si       6.84699353       8.37348351      10.59961162
Si       6.17678012       5.47858606      11.49674266
Si       8.86154439       8.24472894       5.79030862
Si       7.44705080       4.35774123       2.55907606
Si       8.35452695       8.52490525       8.10466535
Si       5.39998872       3.57228369       1.42008553
Si       8.69168686       9.21774857      12.05810142
Si       7.12128028       6.59120582       8.97407142
Si       5.54223006       9.87209381       9.38599841
Si       3.16946414       4.05289102       0.63329122
Si       2.83786935       3.38932701       6.91763664
Si       5.50704253       3.29221590      12.43670838
Si      10.72442990       8.16714864       8.68851631
Si       5.03436694       5.18609516       4.84874146
Si       6.60230383       8.62990370       4.89612212
Si       6.70612162       6.48834454       3.81090095
Si       4.99053164       4.38813206       7.21313053
Si       8.65583499       5.64981808      11.66585038
Si       4.66735808       3.06807103       3.60936606
22
Lattice="5.843189901230006 1.6618563318366153 0.5499480252741057 4.58623813497214 7.315613963644443 1.1042017154840087 2.9315191649540058 3.5440808866125564 12.211122664908565" Properties=species:S:1:pos:R:3 unique_starting_index=40 config_type=initial n_minim_iter=21 stress="0.0007952071114488596 0.0028931529096080017 -0.0028909684278419605 0.0028931529096080017 -0.002025574996131325 -0.0017906738635571726 -0.0028909684278419605 -0.0017906738635571726 0.0026582067984181608" pbc="T T T"
Si       9.94216134       7.55616565      10.88015867
Si       2.64308070       4.02654171       4.56620826
Si       6.03343619       2.65175202       5.78153551
Si       6.84321937       8.33341204      10.61946173
Si       6.13021716       5.46328065      11.51985027
Si       8.88665622       8.27498128       5.75850231
Si       7.44329593       4.36378806       2.50413998
Si       8.34997072       8.48343188       8.09073960
Si       5.45169317       3.60689075       1.38976818
Si       8.65898134       9.20297580      12.08827672
Si       7.08227036       6.64392334       8.98434887
Si       5.50833253       9.85163040       9.40739324
Si       3.19948023       4.04152615       0.60797085
Si       2.81000702       3.37170770       6.90225329
Si       5.44904582       3.30744755      12.46874851
Si      10.71600173       8.19878805       8.64528108
Si       5.02811831       5.21712138       4.84218495
Si       6.61738077       8.59696034       4.89024898
Si       6.72842495       6.46357587       3.76565376
Si       4.99549861       4.37498441       7.21499234
Si       8.61250237       5.65769630      11.64838650
Si       4.67359469       3.07712399       3.60380810
