6
Lattice="5.0488075977283104 -1.6765465847991872e-06 -1.6765466008300406e-06 2.5244059679036037 6.531915964874429 -8.057965667279409e-07 2.5244059679036055 -8.707507471042855e-07 6.531915964874426" Properties=species:S:1:pos:R:3 unique_starting_index=132 config_type=initial n_minim_iter=10 energy=-974.4542729716921 free_energy=-974.4542729716921 pbc="T T T"
Si       7.57321464       5.52582044       5.01207508
Si       2.52440439       1.00609297       1.51983838
Si       5.04880969       1.51983752       5.52582131
Si       5.04880934       5.01207590       1.00609216
Si       4.03663839      -0.00000134      -0.00000135
Si       3.53657468       6.53191563      -0.00000115
