24
Lattice="7.6911657132005455 -2.231782577395514e-11 1.667108794034777e-13 3.845582856619601 6.660744892336373 -1.516552083708217e-13 3.845582856606497 2.220248297438373 10.068567772003535" Properties=species:S:1:pos:R:3 unique_starting_index=24 config_type=initial n_minim_iter=1 energy=-3903.0731006005203 free_energy=-3903.0731006005203 pbc="T T T"
Si       9.05273211       4.78917355       9.95378237
Si       6.70841865       5.44530920       9.95378237
Si       7.31234524       3.08700637       9.95378237
Si       8.70694184       3.43984436       6.09140808
Si       8.04986714       5.82051065       6.09140808
Si       6.31668701       4.06113412       6.09140808
Si       8.62816912       2.56454530       2.01314138
Si       8.84728473       6.18994100       2.01314138
Si       5.59804215       4.56700283       2.01314138
Si       9.13912387       4.30264675       3.66777352
Si       7.08656734       5.76339007       3.66777352
Si       6.84780478       3.25545231       3.66777352
Si       8.26911712       6.58593727       8.50207100
Si       5.54418311       3.86829686       8.50207100
Si       9.26019575       2.86725499       8.50207100
Si       9.86189292       5.02457514       7.59283488
Si       6.09997449       6.02836223       7.59283488
Si       7.11162858       2.26855175       7.59283488
Si       8.87915140       8.05047514       6.74708801
Si       3.97083897       3.66433310       6.74708801
Si      10.22350562       1.60668088       6.74708801
Si       5.33176342       1.97498692       2.29425927
Si       3.31489439       3.62994911       2.29425927
Si       2.89008961       1.05580820       2.29425927
24
Lattice="7.690572609328796 -2.234136568742392e-11 1.6670746778509453e-13 3.845286304683745 6.6602312493163405 -1.5161482397006152e-13 3.8452863046706294 2.2200770830983534 10.065156693796814" Properties=species:S:1:pos:R:3 unique_starting_index=24 config_type=initial n_minim_iter=2 stress="-0.00018779198016569005 -3.2969844193092713e-16 1.1844163491966685e-16 -3.2969844193092713e-16 -0.00018779198016613107 -1.3136254054726687e-16 1.1844163491966685e-16 -1.3136254054726687e-16 -5.080354754070622e-05" pbc="T T T"
Si       9.05202527       4.78882896       9.95045263
Si       6.70788428       5.44486936       9.95045263
Si       7.31180712       3.08676351       9.95045263
Si       8.70629130       3.43955315       6.08929459
Si       8.04925839       5.82009286       6.08929459
Si       6.31616699       4.06081582       6.08929459
Si       8.62753401       2.56437674       2.01245600
Si       8.84656204       6.18947525       2.01245600
Si       5.59762063       4.56660984       2.01245600
Si       9.13839874       4.30232406       3.66650302
Si       7.08602315       5.76292343       3.66650302
Si       6.84729478       3.25521435       3.66650302
Si       8.26849859       6.58542859       8.49922370
Si       5.54374670       3.86801554       8.49922370
Si       9.25947138       2.86701771       8.49922370
Si       9.86113751       5.02419733       7.59025936
Si       6.09949318       6.02789693       7.59025936
Si       7.11108599       2.26836758       7.59025936
Si       8.87849510       8.04989661       6.74480674
Si       3.97048194       3.66405400       6.74480674
Si      10.22273964       1.60651123       6.74480674
Si       5.33132836       1.97478291       2.29348621
Si       3.31469550       3.62967434       2.29348621
Si       2.88983391       1.05577334       2.29348621
24
Lattice="7.693677971485717 -2.2433602670854274e-11 1.6677211977634935e-13 3.8468389857622864 6.662920571832133 -1.5166609630247782e-13 3.846838985749117 2.22097352393692 10.05876560501975" Properties=species:S:1:pos:R:3 unique_starting_index=24 config_type=initial n_minim_iter=3 stress="0.00012490010472152027 -5.748812743353216e-17 9.086138493239914e-17 -5.748812743353216e-17 0.00012490010472080372 -1.6665097615563254e-16 9.086138493239914e-17 -1.6665097615563254e-16 -0.00017316757725593557" pbc="T T T"
Si       9.05564733       4.79089000       9.94435609
Si       6.71049907       5.44697564       9.94435609
Si       7.31488637       3.08797485       9.94435609
Si       8.70991076       3.44081061       6.08514436
Si       8.05257040       5.82259868       6.08514436
Si       6.31855160       4.06243120       6.08514436
Si       8.63116077       2.56555264       2.01114617
Si       8.84994103       6.19202817       2.01114617
Si       5.59993097       4.56825967       2.01114617
Si       9.14199461       4.30410895       3.66405208
Si       7.08889018       5.76514510       3.66405208
Si       6.85014797       3.25658643       3.66405208
Si       8.27194009       6.58811498       8.49402067
Si       5.54591019       3.86965277       8.49402067
Si       9.26318248       2.86807273       8.49402067
Si       9.86517905       5.02628719       7.58541213
Si       6.10187325       6.03035208       7.58541213
Si       7.11398046       2.26920121       7.58541213
Si       8.88223291       8.05337094       6.74052966
Si       3.97181490       3.66555387       6.74052966
Si      10.22698495       1.60691567       6.74052966
Si       5.33337073       1.97530713       2.29207490
Si       3.31632569       3.63118098       2.29207490
Si       2.89081939       1.05643181       2.29207490
24
Lattice="7.6910953528088575 -2.2920543412769078e-11 1.6672085923588905e-13 3.8455476764242786 6.660683958449438 -1.5162973369145821e-13 3.845547676410827 2.2202279861425254 10.059080866219382" Properties=species:S:1:pos:R:3 unique_starting_index=24 config_type=initial n_minim_iter=4 stress="-5.563230072733471e-06 1.271150342635886e-17 -7.842351266431568e-17 1.271150342635886e-17 -5.563230074443275e-06 -5.170781054790045e-17 -7.842351266431568e-17 -5.170781054790045e-17 -7.595905094966395e-06" pbc="T T T"
Si       9.05189406       4.79031787       9.94639914
Si       6.70770594       5.44401127       9.94639914
Si       7.31368491       3.08703811       9.94639914
Si       8.70759469       3.43879212       6.08273917
Si       8.05031127       5.82160215       6.08273917
Si       6.31537895       4.06097299       6.08273917
Si       8.62951857       2.56589421       2.01090517
Si       8.84530109       6.19043520       2.01090517
Si       5.59846525       4.56503784       2.01090517
Si       9.13813867       4.30310905       3.66296660
Si       7.08651885       5.76230571       3.66296660
Si       6.84862738       3.25595250       3.66296660
Si       8.26993293       6.58610295       8.49627272
Si       5.54349101       3.86892053       8.49627272
Si       9.25986097       2.86634378       8.49627272
Si       9.86236878       5.02501490       7.58528259
Si       6.09921499       6.02855446       7.58528259
Si       7.11170113       2.26779790       7.58528259
Si       8.88043084       8.05271299       6.74065703
Si       3.96812050       3.66432222       6.74065703
Si      10.22473356       1.60433205       6.74065703
Si       5.33060741       1.97204268       2.29298096
Si       3.31795182       3.63042010       2.29298096
Si       2.88808264       1.05822052       2.29298096
24
Lattice="7.688493341476835 -2.362034696687954e-11 1.6668423940651472e-13 3.844246670758873 6.658430550534618 -1.5157847710984588e-13 3.8442466707450165 2.2194768501706865 10.060946625314514" Properties=species:S:1:pos:R:3 unique_starting_index=24 config_type=initial n_minim_iter=5 stress="2.808945936372221e-05 1.7546183737101356e-16 1.329974860662351e-16 1.7546183737101356e-16 2.8089459361956383e-05 -1.9831067614414308e-17 1.329974860662351e-16 -1.9831067614414308e-17 8.871605709972852e-05" pbc="T T T"
Si       9.05002973       4.79061008       9.95253902
Si       6.70318102       5.44225061       9.95253902
Si       7.31226813       3.08399975       9.95253902
Si       8.70575092       3.43654503       6.08100757
Si       8.04797516       5.82112894       6.08100757
Si       6.31175279       4.05918647       6.08100757
Si       8.62895665       2.56841316       2.00830048
Si       8.83819655       6.18868909       2.00830048
Si       5.59832568       4.55975820       2.00830048
Si       9.13594492       4.30342565       3.66097756
Si       7.08213752       5.76024757       3.66097756
Si       6.84739643       3.25318722       3.66097756
Si       8.26689229       6.58587720       8.49718214
Si       5.54000282       3.86640013       8.49718214
Si       9.25858377       2.86458311       8.49718214
Si       9.85505164       5.02306578       7.58624506
Si       6.09935752       6.02319219       7.58624506
Si       7.11106971       2.27060247       7.58624506
Si       8.87814360       8.05230352       6.74216408
Si       3.96441471       3.66254614       6.74216408
Si      10.22292056       1.60201078       6.74216408
Si       5.32759296       1.96581915       2.29847132
Si       3.32224677       3.63092127       2.29847132
Si       2.88289913       1.06168947       2.29847132
24
Lattice="7.690159298636037 -2.4221019618153737e-11 1.6673058685394861e-13 3.8450796493389943 6.659873311755798 -1.5159948595375986e-13 3.845079649324792 2.2199577705775457 10.050578670449696" Properties=species:S:1:pos:R:3 unique_starting_index=24 config_type=initial n_minim_iter=6 stress="-0.00014001065030654262 2.452326680762745e-16 3.8607429714734505e-16 2.452326680762745e-16 -0.00014001065030858558 -4.313679297735699e-19 3.8607429714734505e-16 -4.313679297735699e-19 -0.00019556221361927647" pbc="T T T"
Si       9.05072530       4.79221598       9.94417643
Si       6.70477440       5.44205004       9.94417643
Si       7.31497705       3.08547994       9.94417643
Si       8.70839350       3.43708831       6.07262528
Si       8.04951529       5.82314585       6.07262528
Si       6.31256796       4.05951180       6.07262528
Si       8.63290344       2.57205269       2.00214479
Si       8.83640314       6.19028735       2.00214479
Si       5.60117016       4.55740593       2.00214479
Si       9.13942209       4.30682299       3.65565312
Si       7.08078867       5.76156022       3.65565312
Si       6.85026598       3.25136276       3.65565312
Si       8.26712151       6.58670831       8.48893828
Si       5.54250035       3.86618309       8.48893828
Si       9.26085488       2.86685456       8.48893828
Si       9.85478415       5.02359387       7.57847993
Si       6.10236585       6.02269649       7.57847993
Si       7.11332674       2.27345560       7.57847993
Si       8.88138342       8.05561611       6.73490215
Si       3.96325793       3.66369561       6.73490215
Si      10.22583540       1.60043425       6.73490215
Si       5.32777343       1.96183499       2.30171144
Si       3.32727288       3.63306964       2.30171144
Si       2.88019149       1.06496802       2.30171144
24
Lattice="7.692086966375412 -2.477638700752375e-11 1.6676831352916393e-13 3.846043483209163 6.661542720987874 -1.516117558609653e-13 3.8460434831946393 2.2205142403213856 10.04451049693972" Properties=species:S:1:pos:R:3 unique_starting_index=24 config_type=initial n_minim_iter=7 stress="-5.360470541043557e-05 4.0833166888424255e-16 2.950859603981214e-16 4.0833166888424255e-16 -5.360470541258918e-05 1.1087294126069766e-16 2.950859603981214e-16 1.1087294126069766e-16 -8.277786035592184e-05" pbc="T T T"
Si       9.05183874       4.79385271       9.94004703
Si       6.70665557       5.44219595       9.94004703
Si       7.31776544       3.08703613       9.94004703
Si       8.71108324       3.43799562       6.06717086
Si       8.05124000       5.82502157       6.06717086
Si       6.31393651       4.06006759       6.06717086
Si       8.63715088       2.57568805       1.99686605
Si       8.83498645       6.19214805       1.99686605
Si       5.60412243       4.55524868       1.99686605
Si       9.14312757       4.31054657       3.65199279
Si       7.07956655       5.76290746       3.65199279
Si       6.85356563       3.24963075       3.65199279
Si       8.26786493       6.58791844       8.48400963
Si       5.54493598       3.86622184       8.48400963
Si       9.26345885       2.86894450       8.48400963
Si       9.85552236       5.02454674       7.57378434
Si       6.10502687       6.02285937       7.57378434
Si       7.11571052       2.27567868       7.57378434
Si       8.88460708       8.05871136       6.73059180
Si       3.96282086       3.66493976       6.73059180
Si      10.22883180       1.59943366       6.73059180
Si       5.32799416       1.95824328       2.30592569
Si       3.33220069       3.63505665       2.30592569
Si       2.87793445       1.06824212       2.30592569
24
Lattice="7.697443865140188 -2.657613250111521e-11 1.6684168740456822e-13 3.84872193259311 6.66618193140277 -1.5171627981985994e-13 3.848721932577547 2.222060643792418 10.02422700232138" Properties=species:S:1:pos:R:3 unique_starting_index=24 config_type=initial n_minim_iter=8 stress="0.0002026425983809922 1.912358745593936e-16 2.1670521225466273e-16 1.912358745593936e-16 0.00020264259837927926 2.926815416507198e-16 2.1670521225466273e-16 2.926815416507198e-16 0.0002721241013135834" pbc="T T T"
Si       9.05508952       4.79854601       9.92647956
Si       6.71167946       5.44266456       9.92647956
Si       7.32556146       3.09115263       9.92647956
Si       8.71814254       3.44110307       6.04966667
Si       8.05573301       5.82958138       6.04966667
Si       6.31845489       4.06167875       6.04966667
Si       8.65053471       2.58728819       1.97970611
Si       8.82896231       6.19793872       1.97970611
Si       5.61283343       4.54713629       1.97970611
Si       9.15347712       4.32303586       3.63983067
Si       7.07428953       5.76562579       3.63983067
Si       6.86456380       3.24370155       3.63983067
Si       8.27034879       6.59156296       8.46686325
Si       5.55125159       3.86655067       8.46686325
Si       9.27073007       2.87424957       8.46686325
Si       9.85929481       5.02821459       7.55745858
Si       6.11067799       6.02429247       7.55745858
Si       7.12235765       2.27985614       7.55745858
Si       8.89297552       8.06643223       6.71624222
Si       3.96266397       3.66832660       6.71624222
Si      10.23669095       1.59760436       6.71624222
Si       5.32713615       1.94681373       2.31973521
Si       3.34788488       3.64002837       2.31973521
Si       2.87114362       1.07933917       2.31973521
24
Lattice="7.713134330102654 -3.5365655593595395e-11 1.6725781802741804e-13 3.8565671650819557 6.679770272653054 -1.5182681076557103e-13 3.856567165061319 2.2265900908729113 9.900992087502193" Properties=species:S:1:pos:R:3 unique_starting_index=24 config_type=initial n_minim_iter=9 stress="-0.00010377295453302025 2.5572722225211937e-16 1.4386016502863906e-16 2.5572722225211937e-16 -0.00010377295453625177 5.110191641259373e-16 1.4386016502863906e-16 5.110191641259373e-16 4.3321386074041843e-05" pbc="T T T"
Si       9.06887733       4.81554868       9.83850794
Si       6.72144174       5.44610381       9.83850794
Si       7.34908277       3.09788739       9.83850794
Si       8.73563769       3.45584660       5.95497430
Si       8.06559810       5.83736086       5.95497430
Si       6.33816604       4.06633242       5.95497430
Si       8.71241381       2.64180733       1.89464121
Si       8.78218873       6.22426802       1.89464121
Si       5.64479930       4.49346453       1.89464121
Si       9.18481755       4.38736044       3.57028238
Si       7.03429352       5.76060511       3.57028238
Si       6.92029077       3.21157433       3.57028238
Si       8.27971324       6.60275631       8.35843805
Si       5.56825657       3.86906385       8.35843805
Si       9.29143202       2.88771972       8.35843805
Si       9.88762855       5.05061371       7.45478472
Si       6.10849384       6.03763066       7.45478472
Si       7.14327944       2.27129552       7.45478472
Si       8.90995278       8.07915263       6.62696732
Si       3.97454008       3.67666914       6.62696732
Si      10.25490898       1.60371811       6.62696732
Si       5.30564215       1.89311557       2.38381135
Si       3.42082631       3.64826310       2.38381135
Si       2.84323188       1.13839094       2.38381135
24
Lattice="7.728695547592538 -4.1407572000978693e-11 1.6704412420015345e-13 3.8643477738321295 6.693246682310082 -1.5185967384547466e-13 3.8643477738080056 2.2310822274232365 9.8124864694289" Properties=species:S:1:pos:R:3 unique_starting_index=24 config_type=initial n_minim_iter=10 stress="-2.9039284471129627e-05 1.242328543263761e-16 -1.6272754158243627e-16 1.242328543263761e-16 -2.903928447488111e-05 5.96667652468933e-16 -1.6272754158243627e-16 5.96667652468933e-16 7.676855814692356e-05" pbc="T T T"
Si       9.08377866       4.82977162       9.77178724
Si       6.73279608       5.45189727       9.77178724
Si       7.36951075       3.10482381       9.77178724
Si       8.75373781       3.46796393       5.88845596
Si       8.07717656       5.84697735       5.88845596
Si       6.35517112       4.07155142       5.88845596
Si       8.76240794       2.68119327       1.83687554
Si       8.75420487       6.24787124       1.83687554
Si       5.66947267       4.45742818       1.83687554
Si       9.21261749       4.43522087       3.52111747
Si       7.01006764       5.76075035       3.52111747
Si       6.96340036       3.19052148       3.52111747
Si       8.28886262       6.61216375       8.28203824
Si       5.58665724       3.87228373       8.28203824
Si       9.31056563       2.90204523       8.28203824
Si       9.91214739       5.06821036       7.38233185
Si       6.11211771       6.05006627       7.38233185
Si       7.16182039       2.26821607       7.38233185
Si       8.92648687       8.09205567       6.56050561
Si       3.98622111       3.68453656       6.56050561
Si      10.27337751       1.60990047       6.56050561
Si       5.29428217       1.85816275       2.42736168
Si       3.47233755       3.65590148       2.42736168
Si       2.82642245       1.17918179       2.42736168
24
Lattice="7.748792713461971 -4.7223728375085294e-11 1.6666117076423554e-13 3.874396356771881 6.710651338494171 -1.5116450521870996e-13 3.8743963567444024 2.2368837794826604 9.71620602619628" Properties=species:S:1:pos:R:3 unique_starting_index=24 config_type=initial n_minim_iter=11 stress="0.00010150491752324967 -3.02366191825998e-16 -4.559664593306293e-16 -3.02366191825998e-16 0.00010150491751925562 4.772815179113864e-16 -4.559664593306293e-16 4.772815179113864e-16 -0.00036502139162467067" pbc="T T T"
Si       9.10473926       4.84551460       9.69384592
Si       6.74887629       5.46217819       9.69384592
Si       7.39276144       3.11360922       9.69384592
Si       8.77639946       3.48315593       5.82009934
Si       8.09288341       5.85900692       5.82009934
Si       6.37709412       4.07913916       5.82009934
Si       8.82146701       2.72171477       1.78054528
Si       8.72977702       6.27875714       1.78054528
Si       5.69513296       4.42083010       1.78054528
Si       9.24568433       4.48788034       3.46921685
Si       6.98812411       5.76305734       3.46921685
Si       7.01256854       3.17036434       3.46921685
Si       8.30152582       6.62289565       8.19975165
Si       5.61122587       3.87788442       8.19975165
Si       9.33362530       2.92052194       8.19975165
Si       9.94633649       5.08954731       7.30414838
Si       6.11673915       6.06900642       7.30414838
Si       7.18330135       2.26274828       7.30414838
Si       8.94498222       8.10546142       6.48512622
Si       4.00555804       3.69385113       6.48512622
Si      10.29583672       1.62198946       6.48512622
Si       5.28511603       1.82818867       2.46961975
Si       3.52297610       3.66295041       2.46961975
Si       2.81509579       1.21951159       2.46961975
24
Lattice="7.781277844978294 -4.789606686367268e-11 1.661488869760955e-13 3.8906389225306217 6.738784287632248 -1.5029290634164685e-13 3.890638922502757 2.2462614291951297 9.638967696016433" Properties=species:S:1:pos:R:3 unique_starting_index=24 config_type=initial n_minim_iter=12 stress="0.00036867929775811424 -4.344837266488716e-16 -7.551845562279175e-16 -4.344837266488716e-16 0.000368679297754178 5.803367066766021e-16 -7.551845562279175e-16 5.803367066766021e-16 -0.0012989468461999376" pbc="T T T"
Si       9.14945409       4.85894473       9.60473775
Si       6.77985830       5.49418731       9.60473775
Si       7.41451998       3.12443587       9.60473775
Si       8.80913678       3.50720841       5.78636210
Si       8.12065494       5.87533203       5.78636210
Si       6.41404065       4.09502746       5.78636210
Si       8.89782480       2.74383413       1.76461775
Si       8.73741246       6.33382525       1.76461775
Si       5.70859511       4.39990852       1.76461775
Si       9.28540134       4.53846606       3.43301592
Si       6.98942735       5.77216042       3.43301592
Si       7.06900369       3.16694143       3.43301592
Si       8.32499162       6.63161683       8.13762210
Si       5.65691046       3.89384582       8.13762210
Si       9.36193028       2.95210526       8.13762210
Si      10.01838129       5.12058375       7.24361493
Si       6.11880866       6.11588083       7.24361493
Si       7.20664242       2.24110332       7.24361493
Si       8.95778216       8.10682383       6.40405839
Si       4.06294845       3.70425500       6.40405839
Si      10.32310176       1.66648908       6.40405839
Si       5.29068227       1.84754231       2.48883238
Si       3.53591736       3.65809410       2.48883238
Si       2.84531597       1.23314721       2.48883238
24
Lattice="7.783666420898944 -5.4781897489384213e-11 1.6427612729073794e-13 3.8918332104969084 6.740852855054952 -1.481595766761256e-13 3.891833210465069 2.2469509516670727 9.611252561658945" Properties=species:S:1:pos:R:3 unique_starting_index=24 config_type=initial n_minim_iter=13 stress="-0.00031777470504311856 -4.975533065992074e-16 -8.782036017806364e-16 -4.975533065992074e-16 -0.0003177747050476274 8.495832788346642e-16 -8.782036017806364e-16 8.495832788346642e-16 0.00014167658609451502" pbc="T T T"
Si       9.15334773       4.87028154       9.59672587
Si       6.77287067       5.49189090       9.59672587
Si       7.42477970       3.11953260       9.59672587
Si       8.82320410       3.50237779       5.74919618
Si       8.12258188       5.88993000       5.74919618
Si       6.40521212       4.08939725       5.74919618
Si       8.96139749       2.77855086       1.74771268
Si       8.68033769       6.37152245       1.74771268
Si       5.70926292       4.33163172       1.74771268
Si       9.29777297       4.57510761       3.39267071
Si       6.95628616       5.76455378       3.39267071
Si       7.09693897       3.14204364       3.39267071
Si       8.31142411       6.63387925       8.12468567
Si       5.66651205       3.88096480       8.12468567
Si       9.37306193       2.96686099       8.12468567
Si      10.00139164       5.11817532       7.21877628
Si       6.13416639       6.10237157       7.21877628
Si       7.21544006       2.26115814       7.21877628
Si       8.95449826       8.11263757       6.35489673
Si       4.06433271       3.69850419       6.35489673
Si      10.33216713       1.67056328       6.35489673
Si       5.27669743       1.81366872       2.54920205
Si       3.57463374       3.66291967       2.54920205
Si       2.82416729       1.26426380       2.54920205
24
Lattice="7.777349035353836 -5.2077029034526816e-11 1.632623592744633e-13 3.8886745177220106 6.735381838688739 -1.4713541961040448e-13 3.8886745176917326 2.245127279545907 9.662869070867625" Properties=species:S:1:pos:R:3 unique_starting_index=24 config_type=initial n_minim_iter=14 stress="-0.0005969111964728583 -4.772755803706648e-16 -9.859162379439973e-16 -4.772755803706648e-16 -0.0005969111964772379 1.2024010715036692e-15 -9.859162379439973e-16 1.2024010715036692e-15 0.0012974983669403776" pbc="T T T"
Si       9.14517734       4.86467032       9.63774026
Si       6.76918055       5.48762075       9.63774026
Si       7.41768805       3.11847195       9.63774026
Si       8.81756715       3.49530540       5.78405011
Si       8.11889045       5.88858445       5.78405011
Si       6.39558834       4.08687315       5.78405011
Si       8.95180661       2.75867718       1.78957410
Si       8.68970948       6.37315335       1.78957410
Si       5.69052986       4.33893249       1.78957410
Si       9.28562639       4.55313411       3.41430956
Si       6.96875430       5.76502129       3.41430956
Si       7.07766526       3.15260761       3.41430956
Si       8.30751363       6.63562031       8.17159136
Si       5.65432472       3.87670769       8.17159136
Si       9.37020759       2.95843500       8.17159136
Si       9.98377818       5.10599653       7.25927981
Si       6.14088550       6.09320726       7.25927981
Si       7.20738226       2.27155921       7.25927981
Si       8.94650010       8.10849102       6.38305442
Si       4.05928804       3.69365085       6.38305442
Si      10.32625781       1.66862114       6.38305442
Si       5.28626110       1.83564407       2.53450640
Si       3.54450331       3.66021437       2.53450640
Si       2.83525798       1.23952273       2.53450640
24
Lattice="7.836870153641085 -6.068553613955304e-11 1.6173201089671933e-13 3.9184350768730836 6.786928639182847 -1.451415032262297e-13 3.9184350768378393 2.262309546374407 9.509459400340003" Properties=species:S:1:pos:R:3 unique_starting_index=24 config_type=initial n_minim_iter=15 stress="0.001160350949348165 -1.036049405463702e-15 -1.4192998846881984e-15 -1.036049405463702e-15 0.0011603509493431077 1.1844327525174016e-15 -1.4192998846881984e-15 1.1844327525174016e-15 0.00024246547326319082" pbc="T T T"
Si       9.19294218       4.90111675       9.50088863
Si       6.83277683       5.51076309       9.50088863
Si       7.48489028       3.16197677       9.50088863
Si       8.88381231       3.53331630       5.67719093
Si       8.17189169       5.92694899       5.67719093
Si       6.45490528       4.11359131       5.67719093
Si       9.13547315       2.82088475       1.76033410
Si       8.66304510       6.50110945       1.76033410
Si       5.71209104       4.25186241       1.76033410
Si       9.37169473       4.66020410       3.32016652
Si       6.95203703       5.78602366       3.32016652
Si       7.18687753       3.12762884       3.32016652
Si       8.35716713       6.69681378       8.04527960
Si       5.69554511       3.88911215       8.04527960
Si       9.45789705       2.98793068       8.04527960
Si      10.06065341       5.14230881       7.12809509
Si       6.19004276       6.14162703       7.12809509
Si       7.25991312       2.28992077       7.12809509
Si       8.99724372       8.14952092       6.22496316
Si       4.11742552       3.71708117       6.22496316
Si      10.39594005       1.70725452       6.22496316
Si       5.30402248       1.83207392       2.60316997
Si       3.59823558       3.67738125       2.60316997
Si       2.85304600       1.27747280       2.60316997
24
Lattice="7.86959147117363 -6.371657819540886e-11 1.5968173167234961e-13 3.934795735641976 6.815266131409803 -1.426964846317212e-13 3.934795735604981 2.2717553771157206 9.429958348296656" Properties=species:S:1:pos:R:3 unique_starting_index=24 config_type=initial n_minim_iter=16 stress="0.0003953063836801411 -1.5434143938512331e-15 -1.7530518204090382e-15 -1.5434143938512331e-15 0.0003953063836737909 1.7842230398553295e-15 -1.7530518204090382e-15 1.7842230398553295e-15 -7.732140911443337e-05" pbc="T T T"
Si       9.20019619       4.91406872       9.42061967
Si       6.88337572       5.51056926       9.42061967
Si       7.52520133       3.20589361       9.42061967
Si       8.90846419       3.56373397       5.62622905
Si       8.19866591       5.93308932       5.62622905
Si       6.50164313       4.13370830       5.62622905
Si       9.25178609       2.84080965       1.76656114
Si       8.65307579       6.59187696       1.76656114
Si       5.70391135       4.19784497       1.76656114
Si       9.41939994       4.72690337       3.27610068
Si       6.93586379       5.79398795       3.27610068
Si       7.25350951       3.10964027       3.27610068
Si       8.39675831       6.74425040       7.97134941
Si       5.70011083       3.89968080       7.97134941
Si       9.51190411       2.98660038       7.97134941
Si      10.10795294       5.15810198       7.05402172
Si       6.21815834       6.17469304       7.05402172
Si       7.28266196       2.29773657       7.05402172
Si       9.02922456       8.16908926       6.13606897
Si       4.14993105       3.73499322       6.13606897
Si      10.42961762       1.72644911       6.13606897
Si       5.32127921       1.85596059       2.63911384
Si       3.60164206       3.68038268       2.63911384
Si       2.88146476       1.27892218       2.63911384
24
Lattice="7.846232138092614 -6.000319884912209e-11 1.5649228194041197e-13 3.923116069098249 6.795036355548034 -1.3902477805394292e-13 3.9231160690633957 2.2650121184963776 9.47946435928926" Properties=species:S:1:pos:R:3 unique_starting_index=24 config_type=initial n_minim_iter=17 stress="-0.00016461571591707837 -1.5930569055343523e-15 -1.5967913191297859e-15 -1.5930569055343523e-15 -0.0001646157159242203 2.3909033866293283e-15 -1.5967913191297859e-15 2.3909033866293283e-15 0.00042181922573131334" pbc="T T T"
Si       9.17750066       4.90029305       9.45740103
Si       6.85993490       5.49780219       9.45740103
Si       7.50125968       3.19197679       9.45740103
Si       8.87456814       3.55062465       5.66072532
Si       8.18024828       5.91028913       5.66072532
Si       6.48387882       4.12915826       5.66072532
Si       9.18157970       2.80499824       1.78102540
Si       8.67247392       6.54898215       1.78102540
Si       5.68464163       4.23609165       1.78102540
Si       9.38465834       4.69312783       3.31584649
Si       6.93576640       5.78078862       3.31584649
Si       7.21827050       3.11615559       3.31584649
Si       8.39006687       6.72586047       8.00186696
Si       5.67266403       3.90308081       8.00186696
Si       9.47596434       2.96113076       8.00186696
Si      10.07658415       5.14139414       7.09539480
Si       6.20159349       6.15588078       7.09539480
Si       7.26051761       2.29279711       7.09539480
Si       9.02162331       8.16410904       6.19384681
Si       4.11132601       3.73090045       6.19384681
Si      10.40574592       1.69506254       6.19384681
Si       5.31751721       1.86536885       2.61437460
Si       3.57201594       3.67242056       2.61437460
Si       2.87981389       1.25724627       2.61437460
24
Lattice="7.846025238328306 -6.49866234719007e-11 1.532981131858837e-13 3.9230126192204082 6.794857175093608 -1.3542470453517917e-13 3.923012619182677 2.26495239167658 9.420543403593859" Properties=species:S:1:pos:R:3 unique_starting_index=24 config_type=initial n_minim_iter=18 stress="-0.0005287598946744611 -1.5259563650046246e-15 -1.9198799116420636e-15 -1.5259563650046246e-15 -0.000528759894682893 2.8693196606924565e-15 -1.9198799116420636e-15 2.8693196606924565e-15 -0.0012473257529937959" pbc="T T T"
Si       9.18173154       4.90733733       9.39771118
Si       6.85130514       5.49794410       9.39771118
Si       7.50503787       3.18443225       9.39771118
Si       8.86720350       3.55007290       5.61437886
Si       8.18399463       5.90418704       5.61437886
Si       6.48687641       4.13545373       5.61437886
Si       9.23551109       2.81579946       1.75438183
Si       8.63574028       6.59028749       1.75438183
Si       5.66682317       4.18362672       1.75438183
Si       9.38949137       4.75098800       3.28713344
Si       6.88282771       5.75604405       3.28713344
Si       7.26575546       3.08268163       3.28713344
Si       8.39938025       6.72200427       7.93926941
Si       5.67093311       3.91307454       7.93926941
Si       9.46776118       2.95463487       7.93926941
Si      10.07928866       5.14274041       7.04571423
Si       6.19866153       6.15754983       7.04571423
Si       7.26012436       2.28942344       7.04571423
Si       9.03234057       8.17615380       6.13754176
Si       4.09512251       3.73415949       6.13754176
Si      10.41061146       1.67940038       6.13754176
Si       5.29931949       1.85214637       2.67011359
Si       3.59235890       3.66327212       2.67011359
Si       2.87735829       1.27943801       2.67011359
24
Lattice="7.848386050864323 -6.586990966290145e-11 1.517109907732755e-13 3.92419302548918 6.796901698722928 -1.336300692995437e-13 3.924193025450938 2.2656338995527303 9.4184097162716" Properties=species:S:1:pos:R:3 unique_starting_index=24 config_type=initial n_minim_iter=19 stress="-0.0006549455298036632 -1.7971820692893323e-15 -2.0700850393584736e-15 -1.7971820692893323e-15 -0.0006549455298123748 3.3002476582855256e-15 -2.0700850393584736e-15 3.3002476582855256e-15 -0.00072071732725413" pbc="T T T"
Si       9.18563701       4.90970399       9.38544017
Si       6.85202443       5.50014301       9.38544017
Si       7.50749553       3.18395572       9.38544017
Si       8.86944120       3.54377300       5.60951616
Si       8.19305327       5.90927490       5.60951616
Si       6.48266250       4.14075482       5.60951616
Si       9.27224153       2.80860868       1.77340366
Si       8.62832409       6.62569237       1.77340366
Si       5.64459136       4.15950167       1.77340366
Si       9.39035222       4.77301009       3.28307618
Si       6.86804722       5.74577852       3.28307618
Si       7.28675755       3.07501410       3.28307618
Si       8.40828980       6.72825268       7.93312492
Si       5.66578868       3.91766623       7.93312492
Si       9.47107850       2.94788381       7.93312492
Si      10.07599428       5.13632456       7.04252313
Si       6.21058663       6.15790474       7.04252313
Si       7.25857607       2.29957343       7.04252313
Si       9.04007388       8.18731550       6.11739672
Si       4.08631116       3.73527588       6.11739672
Si      10.41877193       1.67121134       6.11739672
Si       5.30327569       1.86681069       2.69183248
Si       3.58004194       3.65936613       2.69183248
Si       2.88926027       1.27072421       2.69183248
24
Lattice="7.852888933747741 -6.762979946884346e-11 1.501382070876892e-13 3.9264444669324092 6.800801309689351 -1.3211540314103629e-13 3.926444466893152 2.266933769874288 9.410437300334834" Properties=species:S:1:pos:R:3 unique_starting_index=24 config_type=initial n_minim_iter=20 stress="-8.328090151375011e-05 -1.9371397482813007e-15 -2.188090911931381e-15 -1.9371397482813007e-15 -8.328090152228953e-05 3.603667546323738e-15 -2.188090911931381e-15 3.603667546323738e-15 -0.0003406560117830224" pbc="T T T"
Si       9.18929740       4.91122714       9.36865868
Si       6.85788091       5.50255142       9.36865868
Si       7.51148731       3.18782338       9.36865868
Si       8.87649228       3.53147173       5.59711062
Si       8.20918671       5.92153195       5.59711062
Si       6.47298663       4.14859826       5.59711062
Si       9.30779725       2.80411921       1.78362352
Si       8.62343999       6.65872927       1.78362352
Si       5.62742838       4.13875347       1.78362352
Si       9.39281323       4.79924816       3.27639699
Si       6.85309965       5.73479080       3.27639699
Si       7.31275275       3.06756299       3.27639699
Si       8.41943553       6.73786956       7.92049228
Si       5.66089312       3.92251027       7.92049228
Si       9.47833698       2.94122211       7.92049228
Si      10.07127396       5.12737736       7.03602408
Si       6.22970105       6.15829042       7.03602408
Si       7.25769061       2.31593416       7.03602408
Si       9.05673621       8.20972205       6.09659532
Si       4.06758113       3.73850261       6.09659532
Si      10.43434829       1.65337729       6.09659532
Si       5.31212024       1.87617872       2.72030574
Si       3.57200959       3.66234172       2.72030574
Si       2.89520239       1.26228019       2.72030574
24
Lattice="7.868623349781476 -8.32563298846691e-11 1.3898905945899158e-13 3.934311674962794 6.814427713680443 -1.2054301123969545e-13 3.934311674914511 2.271475904532798 9.31084214752383" Properties=species:S:1:pos:R:3 unique_starting_index=24 config_type=initial n_minim_iter=21 stress="0.0017456923949365143 -2.468847944495882e-15 -2.7722836335847515e-15 -2.468847944495882e-15 0.0017456923949262671 4.884992145265811e-15 -2.7722836335847515e-15 4.884992145265811e-15 0.00186845062148239" pbc="T T T"
Si       9.19596873       4.88288895       9.21623899
Si       6.91055568       5.52249806       9.21623899
Si       7.49934446       3.22346774       9.21623899
Si       8.89434856       3.43366134       5.48960388
Si       8.31643369       5.98590114       5.48960388
Si       6.39508662       4.20929228       5.48960388
Si       9.55290878       2.79867560       1.79816569
Si       8.53706736       6.87372388       1.79816569
Si       5.51589274       3.95645527       1.79816569
Si       9.37160234       5.02292906       3.19557229
Si       6.70146058       5.60458117       3.19557229
Si       7.53280595       3.00134452       3.19557229
Si       8.48263767       6.79301630       7.78897417
Si       5.61300240       3.94967157       7.78897417
Si       9.51022880       2.88616688       7.78897417
Si      10.07820012       5.06816876       6.94883777
Si       6.30898296       6.19389295       6.94883777
Si       7.21868579       2.36679304       6.94883777
Si       9.13101663       8.32649238       5.91438207
Si       3.96078368       3.74444617       5.91438207
Si      10.51406857       1.55791620       5.91438207
Si       5.34676557       1.92442721       2.98388443
Si       3.52863693       3.66822121       2.98388443
Si       2.92753135       1.22177862       2.98388443
