10
Lattice="6.22345 -9.968891196291497e-16 4.593465486549527e-31 -2.294779341910569 5.784921578936097 3.6073893550232645e-31 -1.9643353290447154 -2.892460789468048 5.468407456266703" Properties=species:S:1:pos:R:3 unique_starting_index=26 config_type=initial n_minim_iter=1 pbc="T T T"
Si       2.25963726       4.87739205       0.89586787
Si       1.66903301       0.90752896       0.89586787
Si       1.73617831       1.00639962       4.57253959
Si      -1.73617870      -1.00640020       4.57253959
Si       4.38720346       3.29924519       0.82239434
Si      -0.45853319       2.48567581       0.82239434
Si      -0.51526595       2.40213749       4.64601312
Si       0.51526556      -2.40213806       4.64601312
Si       4.68376999      -1.06761162       2.73420373
Si       1.53967962       1.06761104       2.73420373
10
Lattice="6.259799137175199 -0.028934276422286492 5.056077908946271e-18 -2.3350778530470127 5.808040448407776 1.3501729403412126e-17 -1.962360642064093 -2.8895530859927447 5.531932972617855" Properties=species:S:1:pos:R:3 unique_starting_index=26 config_type=initial n_minim_iter=2 pbc="T T T"
Si       2.25031151       4.87736254       0.90567119
Si       1.67440939       0.90174306       0.90567119
Si       1.74156426       1.00062782       4.62626179
Si      -1.74156465      -1.00062840       4.62626179
Si       4.39579709       3.28689731       0.83243233
Si      -0.47107619       2.49220828       0.83243233
Si      -0.52793780       2.40848024       4.69950065
Si       0.52793741      -2.40848081       4.69950065
Si       4.71630052      -1.09182821       2.76596649
Si       1.54349823       1.06289335       2.76596649
10
Lattice="6.503057749778678 -0.22911687365469227 1.2861300367775294e-17 -2.6108518153029165 5.96034457370371 2.2065174437000178e-16 -1.9461029672378805 -2.8656138500245083 5.961267686146025" Properties=species:S:1:pos:R:3 unique_starting_index=26 config_type=initial n_minim_iter=3 pbc="T T T"
Si       2.18286358       4.87064412       0.97193699
Si       1.70934197       0.86058300       0.97193699
Si       1.77644708       0.95939449       4.98933070
Si      -1.77644746      -0.95939506       4.98933070
Si       4.44924098       3.19733373       0.90069899
Si      -0.55703543       2.53389339       0.90069899
Si      -0.61463912       2.44907262       5.06056870
Si       0.61463874      -2.44907319       5.06056870
Si       4.93515461      -1.25794705       2.98063385
Si       1.56790276       1.02882960       2.98063385
10
Lattice="6.616142200198605 -0.3146607198694085 3.597723205970898e-16 -2.7320656601361937 6.033917981757967 6.226684831320435e-17 -1.9420382700312049 -2.8596286309442784 6.205639096910522" Properties=species:S:1:pos:R:3 unique_starting_index=26 config_type=initial n_minim_iter=4 pbc="T T T"
Si       2.15734628       4.87499533       1.00978963
Si       1.72672988       0.84426136       1.00978963
Si       1.79396540       0.94326488       5.19584947
Si      -1.79396579      -0.94326545       5.19584947
Si       4.47830598       3.16399841       0.93956515
Si      -0.59422983       2.55525828       0.93956515
Si      -0.65227799       2.46978304       5.26607395
Si       0.65227760      -2.46978362       5.26607395
Si       5.03638009      -1.33106438       3.10281955
Si       1.57976172       1.01640308       3.10281955
10
Lattice="6.787201822769713 -0.460642300291684 2.39416971662613e-16 -2.930835808980197 6.139096136454121 2.2046567181743532e-16 -1.9281830068947574 -2.8392269180812177 6.416981681446693" Properties=species:S:1:pos:R:3 unique_starting_index=26 config_type=initial n_minim_iter=5 pbc="T T T"
Si       2.10483822       4.86569584       1.04139909
Si       1.75152742       0.81275743       1.04139909
Si       1.81853780       0.91142944       5.37558259
Si      -1.81853818      -0.91143001       5.37558259
Si       4.50896539       3.09782737       0.97280086
Si      -0.65259975       2.58062590       0.97280086
Si      -0.71123617       2.49428446       5.44418082
Si       0.71123579      -2.49428503       5.44418082
Si       5.19241242      -1.45193501       3.20849084
Si       1.59478902       0.99129214       3.20849084
10
Lattice="6.981765880451898 -0.6528380693505352 6.914609410479066e-17 -3.1812305308878432 6.249081905654835 -1.8821380289581984e-16 -1.9002676747820273 -2.7981219181521495 6.505284760238747" Properties=species:S:1:pos:R:3 unique_starting_index=26 config_type=initial n_minim_iter=6 pbc="T T T"
Si       2.02417675       4.82948438       1.05266277
Si       1.77635823       0.76675890       1.05266277
Si       1.84253567       0.86420440       5.45262200
Si      -1.84253604      -0.86420496       5.45262200
Si       4.52537926       2.99630692       0.98636867
Si      -0.72484428       2.59993636       0.98636867
Si      -0.78374007       2.51321300       5.51891610
Si       0.78373969      -2.51321356       5.51891610
Si       5.37424331      -1.60545193       3.25264238
Si       1.60752220       0.95261330       3.25264238
10
Lattice="7.215942241458004 -1.0020848699230092 -5.0410277244441103e-17 -3.592216146359438 6.3379791476795795 5.375638221631231e-16 -1.8118630475492832 -2.6679471388782834 6.587933070027118" Properties=species:S:1:pos:R:3 unique_starting_index=26 config_type=initial n_minim_iter=7 pbc="T T T"
Si       1.83484732       4.66962327       1.05938863
Si       1.78887842       0.66627047       1.05938863
Si       1.85215526       0.75944488       5.52854444
Si      -1.85215561      -0.75944541       5.52854444
Si       4.47208863       2.74859627       0.99910387
Si      -0.84836289       2.58729748       0.99910387
Si      -0.90594153       2.50251360       5.58882920
Si       0.90594117      -2.50251414       5.58882920
Si       5.61571697      -1.86454829       3.29396654
Si       1.60022492       0.86246289       3.29396654
10
Lattice="7.142065942781848 -1.202110402854054 -3.614697974731775e-17 -3.7509066183214745 6.195552831856614 5.677083218156181e-16 -1.6955796622301864 -2.4967212145012776 6.635748181756393" Properties=species:S:1:pos:R:3 unique_starting_index=26 config_type=initial n_minim_iter=8 pbc="T T T"
Si       1.65103799       4.41491949       1.06244482
Si       1.74012100       0.57852244       1.06244482
Si       1.79945848       0.66589620       5.57330337
Si      -1.79945882      -0.66589670       5.57330337
Si       4.30180779       2.49254673       1.00673381
Si      -0.91064880       2.50089520       1.00673381
Si      -0.96487760       2.42104392       5.62901438
Si       0.96487726      -2.42104442       5.62901438
Si       5.59987255      -1.97888626       3.31787409
Si       1.54219306       0.77677536       3.31787409
10
Lattice="6.892254870044553 -1.5223728610568736 6.875196236926647e-16 -3.9564890390499383 5.845253698994861 3.7666821032436545e-16 -1.4678829154973072 -2.161440418968991 6.874771518336033" Properties=species:S:1:pos:R:3 unique_starting_index=26 config_type=initial n_minim_iter=9 pbc="T T T"
Si       1.30817903       3.90469623       1.09576116
Si       1.62758652       0.41818418       1.09576116
Si       1.67930703       0.49434203       5.77901036
Si      -1.67930732      -0.49434247       5.77901036
Si       3.94130263       2.01006078       1.04380966
Si      -1.00553709       2.31281963       1.04380966
Si      -1.05273953       2.24331459       5.83096187
Si       1.05273924      -2.24331503       5.83096187
Si       5.48047020      -2.14275478       3.43738576
Si       1.41178438       0.62038149       3.43738576
10
Lattice="6.514135488924311 -1.7697281409571746 4.116565674875247e-17 -4.046990344883245 5.4025705001768145 -1.6470807613621653e-17 -1.2335725720205333 -1.816421179609818 7.198677632391868" Properties=species:S:1:pos:R:3 unique_starting_index=26 config_type=initial n_minim_iter=10 pbc="T T T"
Si       0.97528678       3.36605115       1.14913015
Si       1.49185812       0.26679085       1.14913015
Si       1.53567503       0.33131074       6.04954749
Si      -1.53567527      -0.33131110       6.04954749
Si       3.53200718       1.53978156       1.09452645
Si      -1.06486228       2.09306043       1.09452645
Si      -1.10465075       2.03447237       6.10415119
Si       1.10465051      -2.03447274       6.10415119
Si       5.25901187      -2.24442972       3.59933882
Si       1.25512338       0.47470122       3.59933882
10
Lattice="6.4551540396166835 -1.8336542878344826 -3.0544561592440596e-16 -4.084663714975669 5.324173556340421 -9.628974356739116e-16 -1.1852451623205087 -1.7452596342529678 7.633442375384927" Properties=species:S:1:pos:R:3 unique_starting_index=26 config_type=initial n_minim_iter=11 pbc="T T T"
Si       0.90994170       3.25264047       1.24272507
Si       1.46054839       0.23787845       1.24272507
Si       1.50267787       0.29991362       6.39071731
Si      -1.50267811      -0.29991397       6.39071731
Si       3.44639559       1.44347983       1.17168203
Si      -1.07590549       2.04703909       1.17168203
Si      -1.11427163       1.99054541       6.46176035
Si       1.11427140      -1.99054576       6.46176035
Si       5.25173751      -2.29148042       3.81672119
Si       1.20341630       0.45782578       3.81672119
10
Lattice="6.513934483850195 -1.8757964817987316 -1.0402043489988631e-17 -4.145510582289279 5.3632729664961944 -1.590879357874377e-15 -1.1842119507804598 -1.7437382423487304 7.407987345447633" Properties=species:S:1:pos:R:3 unique_starting_index=26 config_type=initial n_minim_iter=12 pbc="T T T"
Si       0.90309466       3.25393257       1.21966053
Si       1.46532901       0.23354356       1.21966053
Si       1.50743686       0.29554689       6.18832682
Si      -1.50743709      -0.29554724       6.18832682
Si       3.46097597       1.43018437       1.13700122
Si      -1.09255230       2.05729176       1.13700122
Si      -1.13097327       2.00071735       6.27098613
Si       1.13097303      -2.00071769       6.27098613
Si       5.31764704      -2.33735260       3.70399368
Si       1.19628722       0.46155577       3.70399368
10
Lattice="6.535055712323615 -1.8805009601216491 1.2326823657672573e-15 -4.15767161787958 5.3811712240060405 -2.1133036017550514e-15 -1.1886920472220184 -1.750335131942194 7.458599391876607" Properties=species:S:1:pos:R:3 unique_starting_index=26 config_type=initial n_minim_iter=13 pbc="T T T"
Si       0.91119219       3.26308781       1.23873191
Si       1.46619167       0.23758210       1.23873191
Si       1.50848108       0.29985277       6.21986749
Si      -1.50848131      -0.29985312       6.21986749
Si       3.47299681       1.43623137       1.14614870
Si      -1.09561295       2.06443854       1.14614870
Si      -1.13426491       2.00752398       6.31245069
Si       1.13426468      -2.00752433       6.31245069
Si       5.34536899      -2.35135949       3.72929970
Si       1.18968649       0.47085818       3.72929970
10
Lattice="6.53215095546471 -1.8898364336070852 1.1482077248319618e-15 -4.165278203612957 5.375028868506123 -2.7060628500208468e-15 -1.1834363759258768 -1.7425962174495189 7.4427842010514205" Properties=species:S:1:pos:R:3 unique_starting_index=26 config_type=initial n_minim_iter=14 pbc="T T T"
Si       0.90550477       3.24981978       1.24389529
Si       1.46136775       0.23537231       1.24389529
Si       1.50350076       0.29741268       6.19888891
Si      -1.50350100      -0.29741303       6.19888891
Si       3.46574892       1.42432981       1.14366343
Si      -1.09887640       2.06086228       1.14366343
Si      -1.13739965       2.00413723       6.29912078
Si       1.13739942      -2.00413758       6.29912078
Si       5.35322359      -2.36234781       3.72139210
Si       1.17892713       0.47251103       3.72139210
10
Lattice="6.547181878449283 -1.9026284029028675 2.7383695784335376e-16 -4.18271116937489 5.384283857915934 -3.986127927865365e-15 -1.182235354537198 -1.7408277275065347 7.447763579547519" Properties=species:S:1:pos:R:3 unique_starting_index=26 config_type=initial n_minim_iter=15 pbc="T T T"
Si       0.90445203       3.24665223       1.25422623
Si       1.46001844       0.23500287       1.25422623
Si       1.50214562       0.29703464       6.19353736
Si      -1.50214585      -0.29703499       6.19353736
Si       3.46928870       1.41802024       1.14417682
Si      -1.10481822       2.06363486       1.14417682
Si      -1.14336883       2.00686954       6.30358676
Si       1.14336860      -2.00686989       6.30358676
Si       5.37704211      -2.37981556       3.72388179
Si       1.17013954       0.47718681       3.72388179
10
Lattice="6.593168703164384 -1.960840326066675 -8.280924381007881e-16 -4.253778025510629 5.405565728247013 -5.33164541557712e-15 -1.1696953388268807 -1.7223627010901723 7.4428903583342105" Properties=species:S:1:pos:R:3 unique_starting_index=26 config_type=initial n_minim_iter=16 pbc="T T T"
Si       0.88939798       3.21612631       1.29104176
Si       1.44999247       0.22859875       1.29104176
Si       1.49186158       0.29025052       6.15184860
Si      -1.49186181      -0.29025087       6.15184860
Si       3.47108652       1.37649632       1.13983255
Si      -1.13169607       2.06822873       1.13983255
Si      -1.17008971       2.01169455       6.30305782
Si       1.17008948      -2.01169490       6.30305782
Si       5.46331713      -2.45189749       3.72144518
Si       1.12985134       0.49105682       3.72144518
10
Lattice="6.732127388726841 -2.040854621043667 -1.4878400364269343e-15 -4.379392586990761 5.505229089810158 -6.006494047460971e-15 -1.1763674008680436 -1.73218723438325 7.6006217758294" Properties=species:S:1:pos:R:3 unique_starting_index=26 config_type=initial n_minim_iter=17 pbc="T T T"
Si       0.89412773       3.23514263       1.36340307
Si       1.45860684       0.22923149       1.36340307
Si       1.50112187       0.29183437       6.23721871
Si      -1.50112210      -0.29183472       6.23721871
Si       3.53423591       1.35445524       1.14821863
Si      -1.18150134       2.10991889       1.14821863
Si      -1.22053490       2.05244242       6.45240315
Si       1.22053467      -2.05244277       6.45240315
Si       5.62719368      -2.55601191       3.80031089
Si       1.10493348       0.51515694       3.80031089
10
Lattice="6.63700531705727 -2.038078854382395 -3.05514404415488e-15 -4.341737948890681 5.417833199581728 -7.637823246053835e-15 -1.1476336840833006 -1.6898771725996724 7.482712719023142" Properties=species:S:1:pos:R:3 unique_starting_index=26 config_type=initial n_minim_iter=18 pbc="T T T"
Si       0.86088325       3.16399122       1.34737508
Si       1.43438389       0.21576279       1.34737508
Si       1.47597605       0.27700675       6.13533764
Si      -1.47597627      -0.27700709       6.13533764
Si       3.47153549       1.30531064       1.12626937
Si      -1.17626835       2.07444337       1.12626937
Si      -1.21436327       2.01834905       6.35644336
Si       1.21436305      -2.01834938       6.35644336
Si       5.55630231      -2.53877987       3.74135636
Si       1.08070278       0.50070067       3.74135636
10
Lattice="6.672483015342588 -2.0494955464143083 -5.127970968259745e-15 -4.365431905975443 5.446601312662732 -9.52544382593969e-15 -1.1535255546835808 -1.6985528831242214 7.51381622497246" Properties=species:S:1:pos:R:3 unique_starting_index=26 config_type=initial n_minim_iter=19 pbc="T T T"
Si       0.86608638       3.17976797       1.35701950
Si       1.44096450       0.21733745       1.35701950
Si       1.48283069       0.27898492       6.15679673
Si      -1.48283091      -0.27898526       6.15679673
Si       3.49137000       1.31057191       1.12831215
Si      -1.18431911       2.08653352       1.12831215
Si      -1.22267820       2.03005022       6.38550408
Si       1.22267797      -2.03005056       6.38550408
Si       5.58718581      -2.55341504       3.75690812
Si       1.08529698       0.50391915       3.75690812
