24
Lattice="7.1829599916125835 0.8565132597852644 -0.8019766554596276 -2.9989501471989968 7.550948739699799 2.456386711828127 -1.078462115283795 2.441703421832486 8.899680262666452" Properties=species:S:1:pos:R:3 unique_starting_index=90 config_type=initial n_minim_iter=1 energy=-3908.88651354836 free_energy=-3908.88651354836 pbc="T T T"
Si       4.68668052       2.24151534       5.23304153
Si       0.05204293       2.76753157       0.70307187
Si       3.19268795       5.31001952       2.73098237
Si       1.40728249       1.36064509       3.35249449
Si       2.51201088       6.07875140      10.03680045
Si      -1.29463306       7.36355880       8.67499782
Si       0.24441324       3.27316344       4.11954694
Si       2.31829813       6.57115266       7.76091001
Si      -2.81546367      11.39799386       8.85914571
Si       2.49959801       4.54014031       6.53223434
Si       0.99135652       5.44456546       3.45639553
Si       3.27516022       8.56552209       4.62685563
Si       3.64938643       7.61963476       2.41707426
Si       4.65684827       5.82094862       7.00019665
Si       0.10264442       6.38154148       1.53299009
Si      -2.77377489      10.19243290      10.93275551
Si      -1.34192851       2.43157999       2.55393134
Si       3.61771719       8.42688636       7.06036283
Si       3.74946578       2.72075486       7.37914005
Si      -1.42307709       5.50231043       5.78335487
Si       0.30516432       7.96393358       6.99386795
Si       2.35406114       1.59211343       1.21271747
Si       4.16256461       4.52706425       4.72409519
Si       0.98954764       7.50590421       4.73193482
24
Lattice="7.186793426972259 0.8567422381172212 -0.8014383074709636 -2.9997827331512483 7.548838968361606 2.457206446826689 -1.078433851795591 2.4423156780315085 8.899071035106203" Properties=species:S:1:pos:R:3 unique_starting_index=90 config_type=initial n_minim_iter=2 stress="0.0003229462755964117 6.452944877059712e-05 1.4910413133667927e-07 6.452944877059712e-05 -9.860022679054207e-05 8.071613585611271e-05 1.4910413133667927e-07 8.071613585611271e-05 -1.5202856513615634e-05" pbc="T T T"
Si       4.68959749       2.24208550       5.23293640
Si       0.05251508       2.76689554       0.70309572
Si       3.19517775       5.30861706       2.73173048
Si       1.40818844       1.36076764       3.35258153
Si       2.51428726       6.07900121      10.03704170
Si      -1.29426048       7.36251342       8.67498308
Si       0.24522647       3.27311732       4.11943279
Si       2.32035216       6.57100210       7.76103748
Si      -2.81514433      11.39568985       8.86007771
Si       2.50162233       4.54002489       6.53246718
Si       0.99198981       5.44337100       3.45720251
Si       3.27787074       8.56376514       4.62776757
Si       3.65210945       7.61831875       2.41856644
Si       4.66017904       5.82116062       7.00070300
Si       0.10313784       6.37981124       1.53385764
Si      -2.77395108      10.19094367      10.93296735
Si      -1.34234279       2.43128080       2.55386983
Si       3.62068021       8.42564739       7.06114860
Si       3.75203647       2.72145861       7.37908998
Si      -1.42301141       5.50170109       5.78331524
Si       0.30608933       7.96259715       6.99427785
Si       2.35538971       1.59166322       1.21314233
Si       4.16518552       4.52716873       4.72456970
Si       0.99088137       7.50432855       4.73260917
24
Lattice="7.1815010923272755 0.854977430091607 -0.800072460448332 -2.99892605472485 7.546983675257427 2.455540416306433 -1.0767353831606001 2.441230574089971 8.896223795031771" Properties=species:S:1:pos:R:3 unique_starting_index=90 config_type=initial n_minim_iter=3 stress="-0.0004901785128752444 -0.00010331453699954643 5.472048658787429e-05 -0.00010331453699954643 -0.0005623796019976914 3.3699019534354024e-06 5.472048658787429e-05 3.3699019534354024e-06 -0.0006000200533846266" pbc="T T T"
Si       4.68681002       2.23995099       5.23154421
Si       0.05286695       2.76621711       0.70104787
Si       3.19315070       5.30352977       2.73148916
Si       1.40694182       1.35914081       3.35262867
Si       2.51296396       6.07696970      10.03534616
Si      -1.29335081       7.35937973       8.67072952
Si       0.24604731       3.27289559       4.11708195
Si       2.31823757       6.56973277       7.75784163
Si      -2.81188428      11.39182401       8.85714422
Si       2.50010286       4.53760227       6.53119448
Si       0.98843050       5.44021898       3.45723707
Si       3.27470864       8.55887892       4.62597480
Si       3.64849336       7.61626944       2.41974439
Si       4.65717025       5.82004235       6.99970643
Si       0.10110379       6.37732504       1.53300918
Si      -2.77271413      10.18774776      10.92824191
Si      -1.34164433       2.43142033       2.55215184
Si       3.61770646       8.42096907       7.05936446
Si       3.75030471       2.71929794       7.37824578
Si      -1.42176174       5.50099986       5.77985224
Si       0.30427110       7.95909475       6.99119712
Si       2.35313065       1.58871366       1.21404820
Si       4.16128385       4.52633634       4.72407307
Si       0.98920465       7.50058165       4.73061424
24
Lattice="7.182127216511032 0.8553784781221687 -0.8004617097330797 -2.9991468232182488 7.549603079022991 2.456118178342325 -1.076884608490062 2.4417153125182662 8.89934546988712" Properties=species:S:1:pos:R:3 unique_starting_index=90 config_type=initial n_minim_iter=4 stress="-0.00017810566950995186 -0.00010203286268386772 3.606933580038498e-05 -0.00010203286268386772 -5.5920931799744324e-05 -3.799579855607826e-05 3.606933580038498e-05 -3.799579855607826e-05 -8.632818138607435e-05" pbc="T T T"
Si       4.68719338       2.24056240       5.23319278
Si       0.05306729       2.76722432       0.70087082
Si       3.19355292       5.30492849       2.73230182
Si       1.40692622       1.35936263       3.35393910
Si       2.51314465       6.07890855      10.03884960
Si      -1.29345539       7.36156709       8.67333773
Si       0.24622810       3.27408331       4.11825051
Si       2.31832183       6.57211506       7.76018238
Si      -2.81168999      11.39550778       8.85997662
Si       2.50032627       4.53898697       6.53343098
Si       0.98813007       5.44187940       3.45843324
Si       3.27504093       8.56159574       4.62716657
Si       3.64886287       7.61917063       2.42056027
Si       4.65760732       5.82230917       7.00203914
Si       0.10098541       6.37949096       1.53327437
Si      -2.77303731      10.19095667      10.93168450
Si      -1.34177268       2.43233168       2.55285933
Si       3.61806644       8.42361684       7.06153011
Si       3.75063804       2.71997351       7.38092529
Si      -1.42177343       5.50293612       5.78146617
Si       0.30410508       7.96159440       6.99323784
Si       2.35326227       1.58890356       1.21457651
Si       4.16148615       4.52813619       4.72564586
Si       0.98927282       7.50293628       4.73191322
24
Lattice="7.183344837338647 0.8587208364636402 -0.8019820991750808 -2.9964415889428713 7.549086978249466 2.457536940946585 -1.077763996335578 2.442176189029704 8.900294661075007" Properties=species:S:1:pos:R:3 unique_starting_index=90 config_type=initial n_minim_iter=5 stress="-4.876574122089509e-05 0.00023914072393240498 -0.0001372365351357281 0.00023914072393240498 5.818613414042365e-05 5.650375285942648e-05 -0.0001372365351357281 5.650375285942648e-05 3.323446619535061e-06" pbc="T T T"
Si       4.68745096       2.24351677       5.23273490
Si       0.05421796       2.76743384       0.70139300
Si       3.19520783       5.30784302       2.73242541
Si       1.40687525       1.36046878       3.35389076
Si       2.51393999       6.08097604      10.03884047
Si      -1.29205456       7.36248292       8.67487741
Si       0.24661709       3.27446807       4.11900157
Si       2.31976483       6.57410402       7.76106677
Si      -2.80889438      11.39614339       8.86165425
Si       2.50143447       4.54121985       6.53373709
Si       0.99047922       5.44340725       3.45847406
Si       3.27824690       8.56456495       4.62764914
Si       3.65211357       7.62129177       2.42025520
Si       4.65919796       5.82558397       7.00172636
Si       0.10372867       6.38008353       1.53389059
Si      -2.77097845      10.19143844      10.93394379
Si      -1.34110218       2.43199683       2.55350723
Si       3.62085525       8.42688622       7.06172650
Si       3.75071206       2.72252262       7.38074708
Si      -1.42044393       5.50301569       5.78269558
Si       0.30648324       7.96314711       6.99419283
Si       2.35417294       1.59044039       1.21421953
Si       4.16310808       4.53063122       4.72555401
Si       0.99181618       7.50448690       4.73262846
24
Lattice="7.185261006681424 0.8569101553440054 -0.800691736058137 -2.9987997323174747 7.549067810923009 2.4566570640303245 -1.0769853879343363 2.4417018160599677 8.90053188671005" Properties=species:S:1:pos:R:3 unique_starting_index=90 config_type=initial n_minim_iter=6 stress="0.00023371973587967533 5.602938329942591e-05 2.719287892294414e-05 5.602938329942591e-05 9.685764657087361e-05 9.782826041176018e-06 2.719287892294414e-05 9.782826041176018e-06 0.000137134422439824" pbc="T T T"
Si       4.68929123       2.24197426       5.23389870
Si       0.05374625       2.76703125       0.70148445
Si       3.19494953       5.30707793       2.73311919
Si       1.40750661       1.35979961       3.35427124
Si       2.51503664       6.07878464      10.03912036
Si      -1.29260585       7.36179722       8.67485303
Si       0.24645636       3.27359399       4.11937720
Si       2.32019740       6.57229939       7.76198507
Si      -2.81109716      11.39553644       8.86063235
Si       2.50256564       4.53998845       6.53450764
Si       0.99047535       5.44273145       3.45823784
Si       3.27799092       8.56301153       4.62826482
Si       3.65178407       7.61919072       2.42046173
Si       4.66057128       5.82367848       7.00252099
Si       0.10257001       6.37927348       1.53358281
Si      -2.77240682      10.19059654      10.93368746
Si      -1.34139475       2.43188059       2.55321737
Si       3.62134566       8.42506104       7.06224794
Si       3.75270665       2.72080696       7.38182484
Si      -1.42098412       5.50239415       5.78253584
Si       0.30608550       7.96210119       6.99416268
Si       2.35497415       1.58976635       1.21466236
Si       4.16436431       4.52881092       4.72663210
Si       0.99117028       7.50330261       4.73268613
24
Lattice="7.184770298183081 0.8530695947404532 -0.8025506264408052 -3.0030954416277726 7.549539577551398 2.4587052356456676 -1.0805955896288304 2.4431604044141277 8.901416196021714" Properties=species:S:1:pos:R:3 unique_starting_index=90 config_type=initial n_minim_iter=7 stress="0.00010300706585053379 -0.00026815975497205543 -0.00020588070074131025 -0.00026815975497205543 4.4178568474103675e-06 0.00013022262738098577 -0.00020588070074131025 0.00013022262738098577 9.32006549567517e-05" pbc="T T T"
Si       4.68626604       2.24039296       5.23267660
Si       0.05330408       2.76638354       0.70085372
Si       3.19076916       5.30429325       2.73414757
Si       1.40489693       1.35862807       3.35487870
Si       2.50889091       6.07753352      10.03920658
Si      -1.29842423       7.36221674       8.67569293
Si       0.24387040       3.27359837       4.11971289
Si       2.31366992       6.57218805       7.76274795
Si      -2.81743131      11.39638197       8.86297710
Si       2.49923547       4.53935340       6.53563759
Si       0.98567231       5.44145781       3.45888892
Si       3.27226721       8.56015049       4.62895768
Si       3.64709083       7.61618865       2.42169717
Si       4.65585783       5.82417591       7.00217188
Si       0.09846807       6.37739355       1.53448881
Si      -2.78104018      10.19175954      10.93627939
Si      -1.34269561       2.43294029       2.55321103
Si       3.61548602       8.42268716       7.06239928
Si       3.74953531       2.71917500       7.38225482
Si      -1.42412264       5.50343653       5.78284835
Si       0.29962944       7.96145699       6.99456951
Si       2.35403797       1.58690800       1.21525106
Si       4.16031357       4.52801576       4.72741288
Si       0.98591466       7.50118915       4.73336221
24
Lattice="7.1836558124459495 0.8542372768849241 -0.7988572681990409 -3.000341273430383 7.547255900769403 2.454459936559706 -1.0752982835686213 2.43982895561355 8.89926418305866" Properties=species:S:1:pos:R:3 unique_starting_index=90 config_type=initial n_minim_iter=8 stress="-7.077293884500656e-05 -0.00019145567685469752 0.00012373165695638653 -0.00019145567685469752 -5.705109762588138e-06 -9.662815346938774e-05 0.00012373165695638653 -9.662815346938774e-05 -0.00015346425713851284" pbc="T T T"
Si       4.68851547       2.23960322       5.23351284
Si       0.05569806       2.76543450       0.69847755
Si       3.19167243       5.30206371       2.73532479
Si       1.40536478       1.35654950       3.35589570
Si       2.51456572       6.07332377      10.03734184
Si      -1.29224872       7.35794858       8.67062906
Si       0.24682282       3.27194021       4.11816080
Si       2.31701847       6.57062506       7.76145664
Si      -2.80837519      11.39182313       8.85648486
Si       2.50439436       4.53761106       6.53638031
Si       0.98664741       5.43924858       3.45740179
Si       3.27551078       8.55741540       4.62777874
Si       3.64897034       7.61466001       2.42251187
Si       4.66037033       5.82591226       7.00196838
Si       0.09933850       6.37482498       1.53223311
Si      -2.77426002      10.18634519      10.93051470
Si      -1.34006614       2.43222425       2.55024260
Si       3.62064799       8.41964310       7.06062674
Si       3.75398553       2.71638186       7.38392117
Si      -1.41836680       5.50127443       5.77829413
Si       0.30369796       7.95797545       6.99027343
Si       2.35505828       1.58429047       1.21733447
Si       4.16256206       4.52841353       4.72942553
Si       0.98915474       7.49736708       4.73064469
24
Lattice="7.18295572607887 0.8554247951954792 -0.7990225247375737 -2.9981227806929596 7.543324201207871 2.456838199960464 -1.0743407157732319 2.4395996128067843 8.904872678250495" Properties=species:S:1:pos:R:3 unique_starting_index=90 config_type=initial n_minim_iter=9 stress="-0.00017860672188179782 -1.8723179096575193e-05 8.980353757964339e-05 -1.8723179096575193e-05 -0.0003046809767393682 2.9895989767216934e-05 8.980353757964339e-05 2.9895989767216934e-05 0.0003050150520022875" pbc="T T T"
Si       4.68830795       2.24075316       5.23693550
Si       0.05724945       2.76385078       0.69881047
Si       3.19171428       5.30058434       2.73847354
Si       1.40480878       1.35617042       3.35842866
Si       2.51580103       6.07174030      10.04391732
Si      -1.28993953       7.35527517       8.67620496
Si       0.24742716       3.27063796       4.12116537
Si       2.31744942       6.56960403       7.76749967
Si      -2.80431675      11.38731215       8.86271781
Si       2.50628020       4.53735579       6.54197254
Si       0.98751920       5.43726325       3.45975164
Si       3.27700097       8.55493591       4.63201992
Si       3.65025067       7.61161870       2.42542888
Si       4.66154635       5.82761434       7.00661907
Si       0.10052538       6.37153603       1.53389948
Si      -2.77170473      10.18227131      10.93839713
Si      -1.33885104       2.43124162       2.55131780
Si       3.62261045       8.41772970       7.06576724
Si       3.75449318       2.71647211       7.38929254
Si      -1.41560661       5.49917485       5.78174717
Si       0.30560701       7.95538538       6.99485954
Si       2.35574451       1.58315065       1.21899023
Si       4.16325962       4.52863261       4.73389373
Si       0.99080329       7.49408970       4.73428739
24
Lattice="7.185173476069642 0.8569321070660769 -0.8002234195330548 -2.998120773253294 7.545278366484865 2.4567226564974596 -1.0760922594798545 2.4404090449032743 8.901769036112267" Properties=species:S:1:pos:R:3 unique_starting_index=90 config_type=initial n_minim_iter=10 stress="1.8935856575879502e-05 0.0001536409748105423 -7.289778917272095e-05 0.0001536409748105423 4.766378397899274e-05 6.427794472946758e-05 -7.289778917272095e-05 6.427794472946758e-05 1.799331038095294e-05" pbc="T T T"
Si       4.68843738       2.24290532       5.23399985
Si       0.05852894       2.76420056       0.69826623
Si       3.19186995       5.30282765       2.73762205
Si       1.40386199       1.35635150       3.35703762
Si       2.51523998       6.07360784      10.03945533
Si      -1.29061233       7.35764722       8.67283224
Si       0.24667200       3.27126551       4.11986783
Si       2.31628233       6.57269637       7.76493306
Si      -2.80431366      11.39107705       8.85965757
Si       2.50748329       4.53990896       6.54027855
Si       0.98771748       5.43917084       3.45763271
Si       3.27800525       8.55867267       4.63009331
Si       3.65183324       7.61388025       2.42411050
Si       4.66252202       5.83324242       7.00251904
Si       0.10101481       6.37311893       1.53333404
Si      -2.77351875      10.18528999      10.93518586
Si      -1.33892396       2.43197313       2.54983635
Si       3.62372283       8.42169368       7.06216628
Si       3.75447772       2.71753440       7.38617857
Si      -1.41494312       5.50079477       5.77930803
Si       0.30561527       7.95845658       6.99164785
Si       2.35714565       1.58290232       1.21873763
Si       4.16424990       4.53163771       4.73227865
Si       0.99123203       7.49619551       4.73229470
24
Lattice="7.187713471141851 0.8545335664337853 -0.8022104489795615 -3.002681177038773 7.543931008662935 2.452605655004029 -1.0795567298596234 2.4355268880881185 8.898293817618711" Properties=species:S:1:pos:R:3 unique_starting_index=90 config_type=initial n_minim_iter=11 stress="0.00018120478580978396 -9.400452624027095e-06 -0.00019789899266705178 -9.400452624027095e-06 -2.820940122261501e-05 -0.0003666064213936525 -0.00019789899266705178 -0.0003666064213936525 -0.00014427306005388119" pbc="T T T"
Si       4.68752272       2.23854469       5.23081420
Si       0.05869822       2.76211760       0.69607756
Si       3.19001478       5.29708614       2.73321286
Si       1.40199108       1.35273241       3.35447003
Si       2.51181735       6.06601536      10.03517391
Si      -1.29522455       7.35211000       8.66582352
Si       0.24318414       3.26744720       4.11683931
Si       2.31042855       6.56745769       7.75956398
Si      -2.81104536      11.38594550       8.85214482
Si       2.50724716       4.53521260       6.53812862
Si       0.98423158       5.43488812       3.45235999
Si       3.27369543       8.55436565       4.62317746
Si       3.64953217       7.60873639       2.41833107
Si       4.66068738       5.83252989       6.99517115
Si       0.09738873       6.37177139       1.52893620
Si      -2.78140047      10.17892306      10.92701598
Si      -1.34151506       2.43081752       2.54642050
Si       3.61967496       8.41617758       7.05482581
Si       3.75238717       2.71010383       7.38190381
Si      -1.41650520       5.49726697       5.77377024
Si       0.30170931       7.95432635       6.98475901
Si       2.35888983       1.57863772       1.21776153
Si       4.16349200       4.52777325       4.72826456
Si       0.98761257       7.49156233       4.72642723
24
Lattice="7.186690117929097 0.852437870249043 -0.7991442228579122 -3.003654047477317 7.548214278526865 2.45498011326281 -1.077086684038405 2.4411285632426356 8.897377504334933" Properties=species:S:1:pos:R:3 unique_starting_index=90 config_type=initial n_minim_iter=12 stress="5.668679557617303e-05 -0.00012532853330486836 5.274459734506797e-05 -0.00012532853330486836 0.00021318409544308908 -4.028730765465939e-05 5.274459734506797e-05 -4.028730765465939e-05 -0.00028101398995775964" pbc="T T T"
Si       4.68795150       2.24123718       5.23297426
Si       0.05932649       2.76226046       0.69696775
Si       3.18886301       5.29747429       2.73672338
Si       1.40176294       1.35359169       3.35453614
Si       2.51367733       6.07201552      10.03882356
Si      -1.29353601       7.35893351       8.66654786
Si       0.24264381       3.26972139       4.11771655
Si       2.30918813       6.57362302       7.76301605
Si      -2.81011801      11.39495484       8.85565038
Si       2.50985391       4.53966435       6.54221623
Si       0.98308144       5.43699294       3.45389513
Si       3.27177232       8.55895508       4.62764097
Si       3.64790379       7.61016974       2.42304130
Si       4.66143866       5.84153920       6.99742354
Si       0.09543645       6.37470997       1.53164847
Si      -2.78061152      10.18838788      10.92889564
Si      -1.34156220       2.43332260       2.54524505
Si       3.61917463       8.42209620       7.05906797
Si       3.75340329       2.71246052       7.38326674
Si      -1.41385500       5.50224424       5.77383998
Si       0.30237130       7.96097055       6.98707060
Si       2.36020570       1.57702485       1.21989389
Si       4.16398755       4.53129705       4.73177716
Si       0.98714387       7.49544179       4.72948831
24
Lattice="7.1867482578184605 0.8526759683354425 -0.7992737141148065 -3.0030628121595275 7.545704789225029 2.455967650185151 -1.0768105731953834 2.440621005489513 8.900098694181493" Properties=species:S:1:pos:R:3 unique_starting_index=90 config_type=initial n_minim_iter=13 stress="6.119845600911654e-06 -2.54743070346712e-05 1.4591947187943252e-05 -2.54743070346712e-05 2.9189073270704e-05 2.2504718076082906e-06 1.4591947187943252e-05 2.2504718076082906e-06 -3.570705521838983e-05" pbc="T T T"
Si       4.68784372       2.24172022       5.23485569
Si       0.06065512       2.76069218       0.69660989
Si       3.18845916       5.29534899       2.73865774
Si       1.40083076       1.35257880       3.35563326
Si       2.51408497       6.06988166      10.04242925
Si      -1.29247843       7.35674064       8.66861686
Si       0.24218450       3.26812635       4.11904811
Si       2.30801550       6.57284904       7.76662469
Si      -2.80807946      11.39192268       8.85853670
Si       2.51181678       4.53918233       6.54622700
Si       0.98286406       5.43483238       3.45440060
Si       3.27170111       8.55699947       4.62923288
Si       3.64827432       7.60710861       2.42435066
Si       4.66212732       5.84500255       6.99905072
Si       0.09508112       6.37237058       1.53206563
Si      -2.78034770      10.18537622      10.93258100
Si      -1.34117514       2.43269720       2.54492170
Si       3.61977186       8.42055931       7.06152931
Si       3.75362869       2.71121739       7.38612026
Si      -1.41146506       5.50075292       5.77448918
Si       0.30314455       7.95932268       6.98878428
Si       2.36172272       1.57487156       1.22106641
Si       4.16464529       4.53128547       4.73433239
Si       0.98772703       7.49250441       4.73086102
24
Lattice="7.186841218352943 0.852677245519317 -0.7990196124413353 -3.0026058591469944 7.543057455355749 2.4567903259139126 -1.0761612112937242 2.4400956360704886 8.90265496179164" Properties=species:S:1:pos:R:3 unique_starting_index=90 config_type=initial n_minim_iter=14 stress="-5.1817206806136176e-05 8.977517874195296e-05 -3.141659839054061e-05 8.977517874195296e-05 -0.0001794138332973454 4.7673303750535726e-05 -3.141659839054061e-05 4.7673303750535726e-05 0.00024234172438623397" pbc="T T T"
Si       4.68821626       2.24242607       5.23739754
Si       0.06200561       2.75879250       0.69572394
Si       3.18812528       5.29256575       2.74147825
Si       1.39967324       1.35111598       3.35649118
Si       2.51457574       6.06689732      10.04619106
Si      -1.29100883       7.35428782       8.67028367
Si       0.24126161       3.26580999       4.12015894
Si       2.30627943       6.57228470       7.77145131
Si      -2.80525689      11.38882570       8.86150140
Si       2.51477261       4.53860738       6.55129332
Si       0.98243256       5.43174583       3.45465036
Si       3.27090878       8.55468787       4.63002344
Si       3.64840335       7.60316565       2.42567189
Si       4.66282541       5.85187452       7.00053258
Si       0.09366314       6.36955579       1.53226923
Si      -2.78017548      10.18220868      10.93631081
Si      -1.34087091       2.43197884       2.54417882
Si       3.62005570       8.41903771       7.06476599
Si       3.75419387       2.70932149       7.38933811
Si      -1.40785524       5.49934089       5.77389059
Si       0.30422351       7.95802776       6.99045950
Si       2.36472966       1.57158811       1.22222684
Si       4.16594823       4.53111593       4.73699760
Si       0.98862484       7.48872762       4.73192479
24
Lattice="7.186973716233933 0.8518051014013126 -0.7978961511549905 -3.003755258786443 7.546113831681121 2.4550258729563175 -1.0756291115859327 2.4407396652345943 8.898474834403261" Properties=species:S:1:pos:R:3 unique_starting_index=90 config_type=initial n_minim_iter=15 stress="4.871251696894526e-06 -1.2849312134982434e-05 3.239162262198126e-06 -1.2849312134982434e-05 2.4632731132107653e-05 -9.768765383238539e-06 3.239162262198126e-06 -9.768765383238539e-06 -3.5444389276863695e-05" pbc="T T T"
Si       4.68960353       2.24232098       5.23631149
Si       0.06029335       2.76015573       0.69485601
Si       3.18887046       5.29384550       2.74086201
Si       1.40044754       1.35135572       3.35441384
Si       2.51433390       6.06789726      10.04171598
Si      -1.29161133       7.35662579       8.66631166
Si       0.24100227       3.26634612       4.11796997
Si       2.30661249       6.57379979       7.76915509
Si      -2.80605216      11.39280995       8.85743780
Si       2.51465778       4.53917356       6.54818420
Si       0.98213636       5.43253460       3.45331923
Si       3.26951772       8.55631266       4.62614900
Si       3.64741977       7.60528983       2.42400967
Si       4.66185951       5.85551777       6.99779287
Si       0.09182462       6.37138341       1.53144722
Si      -2.78083766      10.18597969      10.93136525
Si      -1.34165808       2.43259247       2.54356230
Si       3.61879951       8.42114774       7.06299454
Si       3.75469759       2.70946876       7.38645459
Si      -1.40819782       5.50146708       5.76990116
Si       0.30387308       7.96107387       6.98779148
Si       2.36616846       1.57156662       1.22071139
Si       4.16674876       4.53089619       4.73404218
Si       0.98860074       7.49055763       4.72933471
24
Lattice="7.187406851891912 0.8514479757439315 -0.7973211741266942 -3.004105233893506 7.546135206861018 2.455135196311538 -1.0751753312404928 2.4411673658946698 8.898285079478642" Properties=species:S:1:pos:R:3 unique_starting_index=90 config_type=initial n_minim_iter=16 stress="1.152940111483551e-05 -6.4801788401016e-06 3.811677562782634e-06 -6.4801788401016e-06 2.5692430882634996e-05 -3.1994713360553195e-06 3.811677562782634e-06 -3.1994713360553195e-06 -2.876429205829372e-05" pbc="T T T"
Si       4.69053486       2.24278821       5.23719839
Si       0.05998033       2.75989624       0.69416430
Si       3.18910920       5.29322010       2.74169949
Si       1.40051099       1.35086606       3.35387732
Si       2.51471007       6.06790738      10.04285726
Si      -1.29191437       7.35689511       8.66579903
Si       0.24114766       3.26582873       4.11852992
Si       2.30620638       6.57406742       7.77007886
Si      -2.80519381      11.39344609       8.85721427
Si       2.51640886       4.53982694       6.54896903
Si       0.98182125       5.43178958       3.45321555
Si       3.26931746       8.55551641       4.62638810
Si       3.64727773       7.60464572       2.42443050
Si       4.66120621       5.86098667       6.99720159
Si       0.09122069       6.37031123       1.53256324
Si      -2.78127992      10.18675388      10.93201177
Si      -1.34218904       2.43237681       2.54327246
Si       3.61927167       8.42161796       7.06346615
Si       3.75471502       2.70908766       7.38756667
Si      -1.40697257       5.50144811       5.76829814
Si       0.30419478       7.96199836       6.98754273
Si       2.36797192       1.56945154       1.22098314
Si       4.16826718       4.53115014       4.73523080
Si       0.98898039       7.48936107       4.72954780
24
Lattice="7.187501522786552 0.8514344656152084 -0.7970864776472667 -3.0040450520660484 7.5461331121646475 2.455434346905856 -1.0749237538262462 2.441540431988406 8.898500758615102" Properties=species:S:1:pos:R:3 unique_starting_index=90 config_type=initial n_minim_iter=17 stress="-5.228096575047011e-07 9.828577664932945e-07 1.6623995631977949e-06 9.828577664932945e-07 -1.1133914359845517e-06 8.304730633887198e-07 1.6623995631977949e-06 8.304730633887198e-07 4.0860575256843513e-07" pbc="T T T"
Si       4.69114905       2.24303601       5.23801652
Si       0.05907076       2.75997126       0.69395011
Si       3.18959111       5.29347244       2.74208857
Si       1.40095571       1.35097242       3.35343854
Si       2.51487805       6.06836857      10.04385474
Si      -1.29228048       7.35740900       8.66619171
Si       0.24163907       3.26560705       4.11909648
Si       2.30657472       6.57398107       7.77063775
Si      -2.80476362      11.39388617       8.85758870
Si       2.51702250       4.54030572       6.54880526
Si       0.98219688       5.43154919       3.45366392
Si       3.26964507       8.55496542       4.62691665
Si       3.64726848       7.60479665       2.42459675
Si       4.66026869       5.86378516       6.99708151
Si       0.09121632       6.36970576       1.53369964
Si      -2.78108529      10.18745572      10.93295792
Si      -1.34252671       2.43199198       2.54385090
Si       3.61970143       8.42207720       7.06387032
Si       3.75434306       2.70943242       7.38842983
Si      -1.40677390       5.50133324       5.76780797
Si       0.30454016       7.96269766       6.98793857
Si       2.36885285       1.56873973       1.22088098
Si       4.16934249       4.53113673       4.73583814
Si       0.98939685       7.48884888       4.73011366
24
Lattice="7.187871552039934 0.8513254355490946 -0.7969346142290183 -3.0042179535078675 7.546297744068104 2.456006694875957 -1.0748882538672109 2.442239200880166 8.898709300043892" Properties=species:S:1:pos:R:3 unique_starting_index=90 config_type=initial n_minim_iter=18 stress="-1.0538648186810613e-05 8.243213733548665e-06 -7.029994052872794e-07 8.243213733548665e-06 -2.060329195310931e-05 2.3495427352570786e-06 -7.029994052872794e-07 2.3495427352570786e-06 2.922865028364452e-05" pbc="T T T"
Si       4.69180331       2.24319196       5.23919951
Si       0.05735811       2.75984108       0.69354665
Si       3.19018325       5.29392374       2.74274419
Si       1.40145468       1.35119555       3.35271484
Si       2.51485448       6.06908905      10.04504129
Si      -1.29296641       7.35875263       8.66678872
Si       0.24232706       3.26506967       4.11948097
Si       2.30669236       6.57403700       7.77122995
Si      -2.80458572      11.39485579       8.85848190
Si       2.51769612       4.54102742       6.54823124
Si       0.98295838       5.43106170       3.45464240
Si       3.27026138       8.55433120       4.62796231
Si       3.64711481       7.60524201       2.42487282
Si       4.65877111       5.86818470       6.99660680
Si       0.09073457       6.36914775       1.53522652
Si      -2.78109609      10.18875341      10.93392666
Si      -1.34286741       2.43137355       2.54488120
Si       3.62016878       8.42295730       7.06393447
Si       3.75343295       2.71000758       7.38941172
Si      -1.40678926       5.50138082       5.76706509
Si       0.30471947       7.96392839       6.98849566
Si       2.37020915       1.56777534       1.22093171
Si       4.17077991       4.53138674       4.73644891
Si       0.98967590       7.48818146       4.73105267
24
Lattice="7.188276426359075 0.8510674513138416 -0.7972150596680343 -3.0047504198273063 7.546452698126288 2.456205132099574 -1.0754329642858202 2.4424512713895585 8.89849912609879" Properties=species:S:1:pos:R:3 unique_starting_index=90 config_type=initial n_minim_iter=19 stress="1.654621891550655e-06 -2.729291313451679e-07 2.549588822640243e-07 -2.729291313451679e-07 3.255909811874997e-06 1.0473153131411412e-07 2.549588822640243e-07 1.0473153131411412e-07 -3.7635656036135336e-06" pbc="T T T"
Si       4.69135705       2.24283814       5.23918489
Si       0.05685948       2.75931157       0.69331279
Si       3.18991371       5.29378248       2.74289557
Si       1.40112298       1.35113653       3.35264538
Si       2.51447654       6.06892724      10.04459158
Si      -1.29314108       7.35948549       8.66671825
Si       0.24216661       3.26465657       4.11884431
Si       2.30576271       6.57431766       7.77095509
Si      -2.80536845      11.39523107       8.85883275
Si       2.51740138       4.54097440       6.54789175
Si       0.98310327       5.43070028       3.45501110
Si       3.27033652       8.55447509       4.62828675
Si       3.64681077       7.60535051       2.42496571
Si       4.65865988       5.86877873       6.99606868
Si       0.08987755       6.36952680       1.53502120
Si      -2.78182506      10.18900477      10.93331585
Si      -1.34269181       2.43129346       2.54496963
Si       3.61979506       8.42309865       7.06320513
Si       3.75292498       2.70990960       7.38893792
Si      -1.40710993       5.50171565       5.76693893
Si       0.30409443       7.96408965       6.98843418
Si       2.37038145       1.56770034       1.22130052
Si       4.17049610       4.53168750       4.73604228
Si       0.98903764       7.48812316       4.73118395
