16
Lattice="2.59644528437415 1.7546767409080926e-11 3.0387151324301414e-11 -8.48466838074735e-11 12.55500611199118 1.3518801839766844e-14 -8.482682883938102e-11 -6.277503055995601 10.87295423765325" Properties=species:S:1:pos:R:3 unique_starting_index=88 config_type=initial n_minim_iter=1 energy=-2602.8921336625463 free_energy=-2602.8921336625463 pbc="T T T"
Si       0.15783733       4.04247413       2.72588770
Si       0.15783733       6.61695399       6.00912510
Si       0.15783733       8.17308105       2.13794144
Si       0.17700624      11.84577975       1.10956482
Si       0.17700624       1.31552450       0.05942564
Si       0.17700624       5.67120491       9.70396378
Si       1.43708099       1.14895209       2.14105567
Si       1.43708099       7.55723560       8.80740470
Si       1.43708099      10.12632146      -0.07550613
Si       1.46827832       6.07845976       2.33122984
Si       1.46827832       5.25717743       4.44323875
Si       1.46827832       7.49687197       4.09848565
Si       2.69611487       0.01286062       4.92878396
Si       2.69611487      -2.01548126       8.39742463
Si       2.69611487       2.00262063       8.41969989
Si       0.12299779      -0.00000000       7.24863616
16
Lattice="2.603066645283927 1.7591514541059668e-11 3.046464353919579e-11 -8.501222995793681e-11 12.579502448649427 1.464289919481092e-14 -8.499233625039823e-11 -6.289751224324726 10.894168687498949" Properties=species:S:1:pos:R:3 unique_starting_index=88 config_type=initial n_minim_iter=2 stress="0.00019175174576929987 -4.149775465953183e-15 -7.182527752961916e-15 -4.149775465953183e-15 0.0007968072655805293 2.7787379774211297e-16 -7.182527752961916e-15 2.7787379774211297e-16 0.0007968072655805691" pbc="T T T"
Si       0.15835177       4.05024909       2.73121118
Si       0.15835177       6.62992494       6.02094450
Si       0.15835177       8.18907964       2.14201302
Si       0.17726318      11.86916514       1.11199554
Si       0.17726318       1.31818504       0.05917238
Si       0.17726318       5.68190349       9.72300077
Si       1.44091703       1.15107208       2.14521499
Si       1.44091703       7.57202586       8.82470353
Si       1.44091703      10.14615573      -0.07574983
Si       1.47189638       6.09078527       2.33610336
Si       1.47189638       5.26748344       4.45134223
Si       1.47189638       7.51098495       4.10672310
Si       2.70305546       0.01275352       4.93819873
Si       2.70305546      -2.01952244       8.41402445
Si       2.70305546       2.00676891       8.43611420
Si       0.12322899      -0.00000000       7.26277913
16
Lattice="2.6101012552479057 1.763905440858331e-11 3.054697215931706e-11 -8.490108279225268e-11 12.563055685124047 1.0596020152320539e-14 -8.488121509425672e-11 -6.281527842562032 10.879925372475936" Properties=species:S:1:pos:R:3 unique_starting_index=88 config_type=initial n_minim_iter=3 stress="0.00413767695122711 4.3839972827404003e-14 7.599142514835635e-14 4.3839972827404003e-14 -0.002352563440511783 1.41636573821765e-16 7.599142514835635e-14 1.41636573821765e-16 -0.002352563440511783" pbc="T T T"
Si       0.16013015       4.04457186       2.72807365
Si       0.16013015       6.62182299       6.01318657
Si       0.16013015       8.17818867       2.13866516
Si       0.17534405      11.85727855       1.11344833
Si       0.17534405       1.31716310       0.05449676
Si       0.17534405       5.67014186       9.71198029
Si       1.44691902       1.14799268       2.14167007
Si       1.44691902       7.56227218       8.81489952
Si       1.44691902      10.13431866      -0.07664421
Si       1.47433731       6.08850770       2.33836901
Si       1.47433731       5.26236095       4.43793853
Si       1.47433731       7.49371487       4.10361784
Si       2.71119396       0.01133427       4.92951893
Si       2.71119396      -2.01810636       8.40535014
Si       2.71119396       2.00677209       8.42498168
Si       0.12249042      -0.00000000       7.25328358
16
Lattice="2.599898396387905 1.757010352700629e-11 3.042756436051414e-11 -8.510273654912374e-11 12.592894967420188 1.2363085024298344e-14 -8.508282166214254e-11 -6.296447483710106 10.905766948975085" Properties=species:S:1:pos:R:3 unique_starting_index=88 config_type=initial n_minim_iter=4 stress="-0.0004969712036744643 -5.3385077006877625e-15 -9.067845382649108e-15 -5.3385077006877625e-15 0.0002844815599638866 6.171256491145422e-16 -9.067845382649108e-15 6.171256491145422e-16 0.00028448155996293144" pbc="T T T"
Si       0.16100492       4.05390750       2.73484960
Si       0.16100492       6.63794296       6.02755527
Si       0.16100492       8.19749199       2.14336208
Si       0.17190521      11.88938618       1.11947089
Si       0.17190521       1.32124461       0.04952103
Si       0.17190521       5.67871165       9.73677503
Si       1.44367553       1.14907504       2.14580375
Si       1.44367553       7.58023051       8.83773690
Si       1.44367553      10.16003689      -0.07777369
Si       1.46685480       6.10888575       2.34819228
Si       1.46685480       5.27559877       4.44122056
Si       1.46685480       7.50485792       4.11635411
Si       2.70157070       0.00969514       4.93865111
Si       2.70157070      -2.02429773       8.42804516
Si       2.70157070       2.01460259       8.44483763
Si       0.12076598      -0.00000000       7.27051130
16
Lattice="2.6031248522416988 1.759190790346007e-11 3.046532475656809e-11 -8.49922229158287e-11 12.576541949491677 1.5411300142882167e-14 -8.497233389013706e-11 -6.288270974745853 10.891604820020452" Properties=species:S:1:pos:R:3 unique_starting_index=88 config_type=initial n_minim_iter=5 stress="0.00022867716677965058 1.8098860128024704e-15 3.3519570999236977e-15 1.8098860128024704e-15 -5.580506536647804e-05 5.825846272989605e-16 3.3519570999236977e-15 5.825846272989605e-16 -5.5805065366876576e-05" pbc="T T T"
Si       0.16502339       4.05129649       2.72843388
Si       0.16502339       6.62551578       6.01886220
Si       0.16502339       8.18800065       2.14430874
Si       0.16338022      11.88521567       1.12417000
Si       0.16338022       1.31922291       0.03662112
Si       0.16338022       5.66037433       9.73081370
Si       1.45295190       1.14613811       2.13859150
Si       1.45295190       7.56727649       8.82972435
Si       1.45295190      10.15139832      -0.07671103
Si       1.46405181       6.10979852       2.33742775
Si       1.46405181       5.25764352       4.43165021
Si       1.46405181       7.49737088       4.12252686
Si       2.70844961       0.00367593       4.92547951
Si       2.70844961      -2.02451856       8.42568162
Si       2.70844961       2.02084262       8.43204851
Si       0.11651167      -0.00000000       7.26106988
16
Lattice="2.6025143781172293 1.758778232163641e-11 3.045818015401804e-11 -8.496605998842735e-11 12.572670546406822 1.5091572233041647e-14 -8.494617708512093e-11 -6.286335273203425 10.888252086600684" Properties=species:S:1:pos:R:3 unique_starting_index=88 config_type=initial n_minim_iter=6 stress="-0.0002452686440840328 -2.6121042180927655e-15 -4.542021892701294e-15 -2.6121042180927655e-15 0.0001359437682371231 7.803079887614011e-16 -4.542021892701294e-15 7.803079887614011e-16 0.00013594376823696357" pbc="T T T"
Si       0.16577630       4.05427424       2.71244382
Si       0.16577630       6.60824341       6.02092569
Si       0.16577630       8.19648817       2.15488258
Si       0.15440984      11.88456759       1.12563926
Si       0.15440984       1.31888367       0.03309501
Si       0.15440984       5.65555455       9.72951782
Si       1.45955406       1.15378087       2.13011558
Si       1.45955406       7.55417904       8.82399075
Si       1.45955406      10.15104590      -0.06585425
Si       1.46172136       6.10508462       2.33574805
Si       1.46172136       5.25661010       4.43321968
Si       1.46172136       7.49731108       4.11928436
Si       2.71296429      -0.00597514       4.91828128
Si       2.71296429      -2.02399117       8.43428606
Si       2.71296429       2.02996630       8.42393683
Si       0.11058875      -0.00000000       7.25883473
16
Lattice="2.602525914138462 1.7587860282024267e-11 3.0458315164305e-11 -8.496199298799605e-11 12.572068740738283 1.4314867458227166e-14 -8.49421110364082e-11 -6.286034370369153 10.887730907603585" Properties=species:S:1:pos:R:3 unique_starting_index=88 config_type=initial n_minim_iter=7 stress="1.6469368750906696e-05 1.1214788541771302e-15 1.9583575535491663e-15 1.1214788541771302e-15 -0.00015382106844198266 1.0274833891151876e-15 1.9583575535491663e-15 1.0274833891151876e-15 -0.00015382106844246136" pbc="T T T"
Si       0.16616257       4.05797196       2.70024115
Si       0.16616257       6.59552582       6.02330353
Si       0.16616257       8.20460533       2.16418623
Si       0.14592907      11.88814947       1.12896992
Si       0.14592907       1.31967626       0.02780651
Si       0.14592907       5.65027737       9.73095449
Si       1.46576146       1.16126622       2.12233410
Si       1.46576146       7.54339650       8.82087781
Si       1.46576146      10.15344038      -0.05548100
Si       1.45998704       6.11174067       2.33792438
Si       1.45998704       5.25486594       4.42584604
Si       1.45998704       7.49149650       4.12396049
Si       2.71866592      -0.01655331       4.91187336
Si       2.71866592      -2.02395061       8.44612982
Si       2.71866592       2.04050391       8.41745864
Si       0.10442779      -0.00000000       7.25848727
16
Lattice="2.6027095239827682 1.7589101116657455e-11 3.046046401764581e-11 -8.496030721600369e-11 12.571819292242278 1.3144044337205196e-14 -8.494042565890333e-11 -6.28590964612115 10.887514878869109" Properties=species:S:1:pos:R:3 unique_starting_index=88 config_type=initial n_minim_iter=8 stress="0.00029146513228451746 -1.5052811099232573e-15 -2.5816348661809137e-15 -1.5052811099232573e-15 0.0005071454912203342 8.4719257028962525e-16 -2.5816348661809137e-15 8.4719257028962525e-16 0.0005071454912203342" pbc="T T T"
Si       0.16129961       4.06297331       2.69302627
Si       0.16129960       6.58665215       6.02236365
Si       0.16129960       8.20810347       2.17212497
Si       0.14740468      11.88440666       1.12786293
Si       0.14740468       1.32046426       0.03138534
Si       0.14740468       5.65285801       9.72826661
Si       1.46219701       1.17198230       2.11905282
Si       1.46219700       7.53507207       8.81302202
Si       1.46219701      10.15067456      -0.04455996
Si       1.46372789       6.12508899       2.33559029
Si       1.46372789       5.24604567       4.41523707
Si       1.46372789       7.48659427       4.13668753
Si       2.72325867      -0.02502176       4.91124043
Si       2.72325867      -2.02013979       8.45356414
Si       2.72325867       2.04516155       8.41022518
Si       0.10155050      -0.00000000       7.25834325
16
Lattice="2.603043760801582 1.7591359887814515e-11 3.046437571370678e-11 -8.483561509137338e-11 12.553368242459308 1.759816800147072e-14 -8.481576271347054e-11 -6.276684121229668 10.871535801030568" Properties=species:S:1:pos:R:3 unique_starting_index=88 config_type=initial n_minim_iter=9 stress="-0.0006701949577798273 2.4484052998839072e-15 4.388882633381466e-15 2.4484052998839072e-15 -0.0010478699772825861 7.205047224500164e-16 4.388882633381466e-15 7.205047224500164e-16 -0.001047869977281626" pbc="T T T"
Si       0.15964767       4.06722606       2.67322541
Si       0.15964767       6.55815220       6.01260201
Si       0.15964767       8.20467410       2.18570839
Si       0.14593632      11.87197527       1.13031729
Si       0.14593632       1.31957997       0.02494498
Si       0.14593632       5.63849711       9.71627354
Si       1.46092873       1.17680597       2.11275930
Si       1.46092873       7.51798436       8.79601228
Si       1.46092873      10.13526203      -0.03723578
Si       1.46378706       6.12405336       2.32755197
Si       1.46378706       5.23037657       4.40417403
Si       1.46378706       7.47562243       4.13980980
Si       2.72954428      -0.03627580       4.89991349
Si       2.72954428      -2.01509667       8.45299482
Si       2.72954428       2.05137246       8.39016329
Si       0.09799026      -0.00000000       7.24769053
16
Lattice="2.603008715389402 1.759112305105158e-11 3.046396556439625e-11 -8.489331826903872e-11 12.561906746449795 1.7474906198950345e-14 -8.487345238801824e-11 -6.280953373224911 10.87893036239664" Properties=species:S:1:pos:R:3 unique_starting_index=88 config_type=initial n_minim_iter=10 stress="8.923691464474786e-05 -8.978937152310398e-16 -1.4319599508662725e-15 -8.978937152310398e-16 0.00021595890561505526 6.83623119231008e-16 -1.4319599508662725e-15 6.83623119231008e-16 0.00021595890561505526" pbc="T T T"
Si       0.15784879       4.07674411       2.66373866
Si       0.15784879       6.54944666       6.01649706
Si       0.15784879       8.21666934       2.19869464
Si       0.15197650      11.88190034       1.13425013
Si       0.15197650       1.32229262       0.02177775
Si       0.15197650       5.63866715       9.72290248
Si       1.45312175       1.17849794       2.11734717
Si       1.45312175       7.52538083       8.79964762
Si       1.45312175      10.13898134      -0.03806442
Si       1.46433394       6.13481319       2.33129478
Si       1.46433394       5.23250728       4.40037890
Si       1.46433394       7.47553964       4.14725668
Si       2.73180334      -0.04126124       4.90342363
Si       2.73180334      -2.01383333       8.46295183
Si       2.73180334       2.05509456       8.39148527
Si       0.10002738      -0.00000000       7.25262024
16
Lattice="2.6029159031074953 1.759049582600157e-11 3.0462879348225226e-11 -8.482512126294557e-11 12.551815440698093 1.791563567413434e-14 -8.480527134070294e-11 -6.275907720349059 10.870191035258308" Properties=species:S:1:pos:R:3 unique_starting_index=88 config_type=initial n_minim_iter=11 stress="0.00012859771642083858 3.1343540897711794e-16 5.754991685207683e-16 3.1343540897711794e-16 7.75825915953968e-05 4.650407412976175e-16 5.754991685207683e-16 4.650407412976175e-16 7.758259159627712e-05" pbc="T T T"
Si       0.15956008       4.07254932       2.64889488
Si       0.15956008       6.53364331       6.01881242
Si       0.15956008       8.22153052       2.20248374
Si       0.15370951      11.87319134       1.13501178
Si       0.15370951       1.32226108       0.02019982
Si       0.15370951       5.63227073       9.71497944
Si       1.44987154       1.17723170       2.11630983
Si       1.44987154       7.52006994       8.79252356
Si       1.44987154      10.13042152      -0.03864235
Si       1.46104070       6.13908330       2.32704029
Si       1.46104070       5.22164207       4.39006880
Si       1.46104070       7.46699778       4.15308195
Si       2.73330665      -0.04488721       4.89885993
Si       2.73330665      -2.01092697       8.45963454
Si       2.73330665       2.05581418       8.38188761
Si       0.10417392      -0.00000000       7.24679402
16
Lattice="2.602658404624144 1.7588755652225234e-11 3.045986574904544e-11 -8.478622911445358e-11 12.546060458415775 1.8328084897458338e-14 -8.476638829336059e-11 -6.273030229207899 10.865207074403491" Properties=species:S:1:pos:R:3 unique_starting_index=88 config_type=initial n_minim_iter=12 stress="3.3195468612155715e-05 3.7230378052294774e-16 7.317274046371375e-16 3.7230378052294774e-16 -3.148005374123375e-05 6.223334950816827e-16 7.317274046371375e-16 6.223334950816827e-16 -3.148005374011221e-05" pbc="T T T"
Si       0.15999113       4.07128824       2.63806192
Si       0.15999113       6.52201474       6.02033707
Si       0.15999113       8.22578770       2.20680808
Si       0.15438725      11.86671719       1.13465097
Si       0.15438725       1.32230819       0.02100304
Si       0.15438725       5.63006530       9.70955307
Si       1.44808648       1.17700085       2.11536775
Si       1.44808648       7.51649201       8.78821057
Si       1.44808648      10.12559783      -0.03837124
Si       1.45935704       6.14038718       2.32482585
Si       1.45935704       5.21619488       4.38506286
Si       1.45935704       7.46250862       4.15531837
Si       2.73407850      -0.04735030       4.89636807
Si       2.73407850      -2.00897595       8.45802960
Si       2.73407850       2.05632624       8.37601648
Si       0.10715977      -0.00000000       7.24347138
16
Lattice="2.6021496594050406 1.7585317553959188e-11 3.0453911717180614e-11 -8.471264234939778e-11 12.535171614638045 2.0376282744704225e-14 -8.46928187483398e-11 -6.267585807319037 10.855777059074136" Properties=species:S:1:pos:R:3 unique_starting_index=88 config_type=initial n_minim_iter=13 stress="-0.0001558253072324041 -3.89521008468368e-16 -7.243617472494913e-16 -3.89521008468368e-16 -9.883202224543823e-05 6.477680747463397e-16 -7.243617472494913e-16 6.477680747463397e-16 -9.883202224407372e-05" pbc="T T T"
Si       0.16019517       4.07137782       2.61353542
Si       0.16019517       6.49528496       6.02309272
Si       0.16019517       8.23609463       2.21914892
Si       0.15465879      11.85235836       1.13302983
Si       0.15465879       1.32263924       0.02481871
Si       0.15465879       5.62775981       9.69792852
Si       1.44551384       1.17432429       2.11395270
Si       1.44551384       7.51116039       8.78180604
Si       1.44551384      10.11727273      -0.03998168
Si       1.45598579       6.14561633       2.32029145
Si       1.45598579       5.20420898       4.37337147
Si       1.45598579       7.45293211       4.16211414
Si       2.73536538      -0.05206305       4.89162197
Si       2.73536538      -2.00528540       8.45505400
Si       2.73536538       2.05734844       8.36487815
Si       0.11619053      -0.00000000       7.23718471
16
Lattice="2.6024772216978342 1.7587531218694667e-11 3.0457745298815915e-11 -8.470684671027297e-11 12.53431401736529 2.4341804283102382e-14 -8.46870244654521e-11 -6.267157008682665 10.855034358049712" Properties=species:S:1:pos:R:3 unique_starting_index=88 config_type=initial n_minim_iter=14 stress="2.7070499298614193e-05 2.836114213598623e-16 5.200250502532826e-16 2.836114213598623e-16 -2.4392934776173706e-05 5.391957747206008e-16 5.200250502532826e-16 5.391957747206008e-16 -2.4392934775250647e-05" pbc="T T T"
Si       0.15802432       4.07822313       2.60313816
Si       0.15802432       6.48242921       6.02162044
Si       0.15802432       8.24081867       2.23027576
Si       0.15092066      11.84602116       1.13025758
Si       0.15092066       1.32297820       0.03095030
Si       0.15092066       5.63247165       9.69382647
Si       1.44914871       1.16601135       2.11626850
Si       1.44914871       7.51689361       8.78710466
Si       1.44914871      10.11856606      -0.04833880
Si       1.45597771       6.15424114       2.31943775
Si       1.45597771       5.19872845       4.36558631
Si       1.45597771       7.44850143       4.17001030
Si       2.73480466      -0.05113994       4.89129527
Si       2.73480466      -2.00560109       8.45367521
Si       2.73480466       2.05674102       8.36509824
Si       0.12698152      -0.00000000       7.23668957
16
Lattice="2.6018626088303582 1.758337766726142e-11 3.045055225903869e-11 -8.469110070626492e-11 12.531984036184063 2.3937912678340486e-14 -8.467128214616561e-11 -6.265992018092051 10.853016535156428" Properties=species:S:1:pos:R:3 unique_starting_index=88 config_type=initial n_minim_iter=15 stress="-5.597315611342799e-05 -1.4771082948015774e-15 -2.5273998361246278e-15 -1.4771082948015774e-15 0.00015994912583988896 3.932546085766994e-16 -2.5273998361246278e-15 3.932546085766994e-16 0.00015994912584057163" pbc="T T T"
Si       0.15544323       4.07864077       2.59549664
Si       0.15544323       6.47443765       6.02306169
Si       0.15544323       8.24489762       2.23445821
Si       0.15026534      11.84339048       1.12956888
Si       0.15026534       1.32253212       0.03155507
Si       0.15026534       5.63205345       9.69189259
Si       1.44873976       1.16601069       2.11906066
Si       1.44873976       7.51814703       8.78369132
Si       1.44873976      10.11381832      -0.04973545
Si       1.45673971       6.15807463       2.31803861
Si       1.45673971       5.19443502       4.36094816
Si       1.45673971       7.44546639       4.17402976
Si       2.73510661      -0.05251491       4.89114700
Si       2.73510661      -2.00387701       8.45292228
Si       2.73510661       2.05639191       8.36196379
Si       0.13048103      -0.00000000       7.23534436
16
Lattice="2.6019607538670773 1.7584040931048275e-11 3.04517008863949e-11 -8.4687153590088e-11 12.531399970131014 2.256268833011892e-14 -8.466733595365319e-11 -6.265699985065525 10.852510719117003" Properties=species:S:1:pos:R:3 unique_starting_index=88 config_type=initial n_minim_iter=16 stress="-6.094695696324129e-06 -2.7243829174212615e-16 -4.691488680937925e-16 -2.7243829174212615e-16 2.935947956647895e-05 7.574439384928751e-16 -4.691488680937925e-16 7.574439384928751e-16 2.935947956768374e-05" pbc="T T T"
Si       0.15543185       4.07799142       2.59587311
Si       0.15543185       6.47479633       6.02293000
Si       0.15543185       8.24431220       2.23370761
Si       0.14951697      11.84330627       1.12976227
Si       0.14951697       1.32244967       0.03102549
Si       0.14951697       5.63134401       9.69172297
Si       1.44964265       1.16579045       2.11927262
Si       1.44964265       7.51814868       8.78327026
Si       1.44964265      10.11316082      -0.05003216
Si       1.45676928       6.15691914       2.31816628
Si       1.45676928       5.19483130       4.36137919
Si       1.45676928       7.44534950       4.17296525
Si       2.73522118      -0.05216972       4.89095817
Si       2.73522118      -2.00392111       8.45221193
Si       2.73522118       2.05609081       8.36185134
Si       0.13029696      -0.00000000       7.23500715
16
Lattice="2.602012792065278 1.7584392604994848e-11 3.045230990851174e-11 -8.468460184770689e-11 12.5310223815235 2.3026681721626958e-14 -8.466478480840518e-11 -6.265511190761767 10.852183717790718" Properties=species:S:1:pos:R:3 unique_starting_index=88 config_type=initial n_minim_iter=17 stress="4.958970806318777e-06 1.1059908359053983e-16 2.1285034888706952e-16 1.1059908359053983e-16 -1.1773583677102633e-05 3.5935995295164525e-16 2.1285034888706952e-16 3.5935995295164525e-16 -1.1773583675817474e-05" pbc="T T T"
Si       0.15538614       4.07770541       2.59599452
Si       0.15538614       6.47485569       6.02278998
Si       0.15538614       8.24397247       2.23339921
Si       0.14918604      11.84301089       1.12994295
Si       0.14918604       1.32256504       0.03086395
Si       0.14918604       5.63095764       9.69137682
Si       1.45002023       1.16571563       2.11940066
Si       1.45002023       7.51810818       8.78294403
Si       1.45002023      10.11270975      -0.05016098
Si       1.45674030       6.15638617       2.31812109
Si       1.45674030       5.19486986       4.36153635
Si       1.45674030       7.44527753       4.17252628
Si       2.73537895      -0.05199247       4.89096526
Si       2.73537895      -2.00381480       8.45172789
Si       2.73537895       2.05580726       8.36167429
Si       0.13026719      -0.00000000       7.23478915
