14
Lattice="6.5515858350717275 1.8486882188766138 -1.871524614208949 0.6439398299368386 5.521411002699735 0.6707564763326463 -5.457610061534467 -2.9125145649114943 9.242360781213588" Properties=species:S:1:pos:R:3 unique_starting_index=128 config_type=initial n_minim_iter=1 energy=-2278.439727013915 free_energy=-2278.439727013915 pbc="T T T"
Si      -5.19269164      -3.00425126       8.54898924
Si       1.69687948       1.92049910       7.29725037
Si      -1.19168082       3.85167647       6.01793472
Si       3.56988212       1.90089173       2.15240035
Si       0.07363142       3.00438559       8.98464202
Si       0.38842356       2.10884024       2.25044059
Si       2.05712167       3.46662598       3.20104789
Si      -1.26323665      -0.44518538       7.24869905
Si       3.30610275       5.08151446       0.05780146
Si      -0.65634190       0.87891600       4.02156870
Si       2.34499123       5.61581038       2.16529835
Si      -0.40565130       1.61529246       6.28449073
Si       0.40751412      -1.18301165       4.49429706
Si       2.95061580       2.74229281      -0.02511840
14
Lattice="6.555667868494867 1.846253106411747 -1.873270513068577 0.6404178776870609 5.5244163773693975 0.6678013317039376 -5.460751698128863 -2.915533694526808 9.24511679206574" Properties=species:S:1:pos:R:3 unique_starting_index=128 config_type=initial n_minim_iter=2 stress="0.0006800534803926374 -0.00015407992417140564 -8.76302875517987e-05 -0.00015407992417140564 0.0009855139793245734 -0.00024627080957378826 -8.76302875517987e-05 -0.00024627080957378826 0.00043344876175373763" pbc="T T T"
Si      -5.19582873      -3.00648968       8.55139089
Si       1.69510048       1.91647918       7.29618568
Si      -1.19611630       3.85201041       6.01668844
Si       3.57115523       1.89836982       2.15122129
Si       0.07084227       3.00020376       8.98356200
Si       0.38773361       2.10925195       2.24889404
Si       2.05671426       3.46593878       3.19944730
Si      -1.26472880      -0.44712989       7.24879984
Si       3.30450998       5.08259559       0.05510860
Si      -0.65824930       0.87758008       4.02157828
Si       2.34282767       5.61733792       2.16297376
Si      -0.40805596       1.61329861       6.28455294
Si       0.40832338      -1.18702289       4.49545520
Si       2.95201893       2.74172135      -0.02692365
14
Lattice="6.552356504503948 1.8378181790088373 -1.8718851138215888 0.6344611139542059 5.516618695213771 0.6647738655566349 -5.456213441926916 -2.910111306683227 9.236735249913652" Properties=species:S:1:pos:R:3 unique_starting_index=128 config_type=initial n_minim_iter=3 stress="-0.000225166307519512 -0.0006708386471654154 -0.00019806399397611865 -0.0006708386471654154 -0.0003707865995375713 -0.0004007044771648295 -0.00019806399397611865 -0.0004007044771648295 -0.0009917271316275923" pbc="T T T"
Si      -5.19217797      -2.99922345       8.54298745
Si       1.69036733       1.90861644       7.28695876
Si      -1.20004395       3.84584734       6.00940700
Si       3.56844364       1.89101546       2.14841011
Si       0.06842984       2.98886301       8.97261449
Si       0.38744322       2.10636834       2.24417506
Si       2.05488216       3.45844375       3.19527439
Si      -1.26387608      -0.44495160       7.23960038
Si       3.29685844       5.07264571       0.05392479
Si      -0.65976531       0.87452647       4.01737864
Si       2.33704698       5.60824515       2.16044699
Si      -0.41034420       1.60900546       6.27859263
Si       0.40967588      -1.18911052       4.49196307
Si       2.95113098       2.73426969      -0.02808856
14
Lattice="6.555143110047174 1.8419529406102542 -1.8684670126614178 0.6415124218808665 5.514045776451705 0.6725343226877044 -5.453369227056032 -2.90464864758835 9.249768638261884" Properties=species:S:1:pos:R:3 unique_starting_index=128 config_type=initial n_minim_iter=4 stress="0.0007012072678900809 -0.00018568259459186888 0.00014078814419404533 -0.00018568259459186888 -0.0002771209772699263 0.0005130101978680792 0.00014078814419404533 0.0005130101978680792 0.0008066068164589271" pbc="T T T"
Si      -5.19150903      -2.99088162       8.55353152
Si       1.69570061       1.91557848       7.30491800
Si      -1.19170215       3.84730831       6.02648264
Si       3.57343630       1.89527483       2.15852457
Si       0.08030295       2.98987850       8.99478981
Si       0.39512929       2.10934916       2.24908218
Si       2.06649374       3.46238532       3.20893658
Si      -1.25863280      -0.43308652       7.25156281
Si       3.30078364       5.07264119       0.06372150
Si      -0.65674832       0.87531247       4.02692811
Si       2.34716218       5.61137820       2.17694209
Si      -0.40500817       1.61438589       6.29598223
Si       0.41216478      -1.18503665       4.50187301
Si       2.95929965       2.73387690      -0.02304571
14
Lattice="6.547358199785989 1.8551402168195872 -1.869441838429903 0.6476880477508566 5.521830745862149 0.6659656870569282 -5.4496588459549615 -2.9256636633979003 9.244633514258489" Properties=species:S:1:pos:R:3 unique_starting_index=128 config_type=initial n_minim_iter=5 stress="-0.00022465468355677886 0.00035496638633563266 0.0001238041042397941 0.00035496638633563266 0.0005324640543441542 -0.00026755861630447657 0.0001238041042397941 -0.00026755861630447657 -0.00033444367840717155" pbc="T T T"
Si      -5.18872487      -3.01000925       8.54891885
Si       1.69494285       1.91240963       7.29505498
Si      -1.18582396       3.84476483       6.01716038
Si       3.56990378       1.89997880       2.15406021
Si       0.08273199       2.98355066       8.98212819
Si       0.39781541       2.11069995       2.24451911
Si       2.06828979       3.46670734       3.20234574
Si      -1.25828984      -0.44290979       7.24499342
Si       3.30124091       5.08429364       0.05851649
Si      -0.65501818       0.87117532       4.02215740
Si       2.35113529       5.62048095       2.16934470
Si      -0.40352242       1.61010072       6.28804858
Si       0.40941198      -1.19144848       4.49879456
Si       2.95838178       2.74105308      -0.02636309
14
Lattice="6.547983564548172 1.849299148579417 -1.873429692912363 0.6437056111359187 5.518020424953149 0.6667071946440193 -5.453388442657915 -2.9187896343714863 9.250794883456702" Properties=species:S:1:pos:R:3 unique_starting_index=128 config_type=initial n_minim_iter=6 stress="-0.00029462588200785897 2.9882998883190886e-05 -0.000187847090213405 2.9882998883190886e-05 5.929822024342702e-05 -0.00014617919883844348 -0.000187847090213405 -0.00014617919883844348 -4.604467822263852e-05" pbc="T T T"
Si      -5.19234250      -3.00334184       8.55471486
Si       1.69133345       1.91126746       7.29708198
Si      -1.19197698       3.84435987       6.02096315
Si       3.56811446       1.89642814       2.15319269
Si       0.07533900       2.98340660       8.98535274
Si       0.39530297       2.10924668       2.24634902
Si       2.06439945       3.46387654       3.20305759
Si      -1.26200260      -0.44180546       7.24879124
Si       3.29803265       5.07892904       0.05780414
Si      -0.65742711       0.87196009       4.02402391
Si       2.34690964       5.61540379       2.16985475
Si      -0.40843610       1.61068427       6.29032419
Si       0.40788513      -1.19044579       4.50009735
Si       2.95620520       2.73742760      -0.02733434
14
Lattice="6.552887862232259 1.842008358427032 -1.8694666170687462 0.6406751248200089 5.51264953792407 0.6691947551757932 -5.4530845000328805 -2.9082125173851665 9.245691094256447" Properties=species:S:1:pos:R:3 unique_starting_index=128 config_type=initial n_minim_iter=7 stress="0.00028605452537330226 -0.0001805214857737153 1.996147048882306e-05 -0.0001805214857737153 -0.0004624138892134271 0.00013763193905642605 1.996147048882306e-05 0.00013763193905642605 -0.0002283978487449161" pbc="T T T"
Si      -5.19368339      -2.99168948       8.54959819
Si       1.69744835       1.91115912       7.29608399
Si      -1.19434382       3.84489703       6.02191598
Si       3.57180856       1.89192876       2.15504629
Si       0.07574715       2.98305672       8.98239242
Si       0.39650691       2.10799939       2.24832157
Si       2.06701946       3.46158083       3.20566216
Si      -1.25983991      -0.43846547       7.24698456
Si       3.29600799       5.07197695       0.06305275
Si      -0.65612041       0.87344136       4.02291622
Si       2.34804803       5.60945145       2.17445214
Si      -0.40916700       1.61340759       6.28845475
Si       0.41122714      -1.18898337       4.49901124
Si       2.95700015       2.73212289      -0.02454224
14
Lattice="6.5464689998238805 1.8367136521601664 -1.8717744783302224 0.6368328862870388 5.508676276727109 0.6704758212980846 -5.446757566756588 -2.902409006289052 9.258011454927942" Properties=species:S:1:pos:R:3 unique_starting_index=128 config_type=initial n_minim_iter=8 stress="-9.186575545784708e-05 -0.0005090573043594615 -0.0001581659592048763 -0.0005090573043594615 -0.0005615425130877958 0.000301265000563348 -0.0001581659592048763 0.000301265000563348 0.0003308298755794004" pbc="T T T"
Si      -5.19147261      -2.98161581       8.56019115
Si       1.69807979       1.90842110       7.30234625
Si      -1.19785483       3.84483973       6.03232393
Si       3.56831693       1.88644498       2.15797141
Si       0.07124636       2.97632211       8.98848049
Si       0.39916416       2.10772340       2.25290500
Si       2.06798184       3.46036798       3.21229449
Si      -1.25848098      -0.43689947       7.25610349
Si       3.28510940       5.06717392       0.06745826
Si      -0.65489641       0.87283410       4.02737450
Si       2.34682795       5.60594722       2.18257097
Si      -0.41358171       1.61602801       6.29533443
Si       0.41155567      -1.19132165       4.50537869
Si       2.95373400       2.72663998      -0.02389521
14
Lattice="6.548731316970663 1.8407027592547422 -1.873680872191178 0.6409486849571847 5.503442146237702 0.6678497072944444 -5.448968596559395 -2.9088414269396066 9.26613716444978" Properties=species:S:1:pos:R:3 unique_starting_index=128 config_type=initial n_minim_iter=9 stress="0.0003476593371072794 -0.00011503161109497466 -0.000305003689096531 -0.00011503161109497466 -0.0006264111720856821 3.7586052405170626e-05 -0.000305003689096531 3.7586052405170626e-05 0.00020811205178666148" pbc="T T T"
Si      -5.19955169      -2.98073811       8.56669050
Si       1.70306267       1.90212173       7.30114423
Si      -1.19830167       3.83871330       6.03741750
Si       3.57095548       1.88304779       2.15846121
Si       0.07033617       2.95975489       8.98390738
Si       0.40702754       2.10692843       2.25455296
Si       2.07817422       3.45932943       3.21593746
Si      -1.25841383      -0.44077403       7.26075447
Si       3.28157830       5.06514355       0.07063100
Si      -0.65228363       0.86778077       4.02845045
Si       2.35743805       5.60347278       2.18824995
Si      -0.41697139       1.61468568       6.29683960
Si       0.41081992      -1.19678056       4.51012431
Si       2.95828058       2.72337252      -0.02462246
14
Lattice="6.538631168834284 1.842111466603981 -1.866546504109698 0.6411710536049572 5.507921170307353 0.6698147352214346 -5.431927373957102 -2.909677024880779 9.262473883412023" Properties=species:S:1:pos:R:3 unique_starting_index=128 config_type=initial n_minim_iter=10 stress="-0.00021382530205881915 -0.0001385860058502375 0.00011333097354047728 -0.0001385860058502375 0.00024609078385048904 0.00017400227131380528 0.00011333097354047728 0.00017400227131380528 -2.0015298343667964e-05" pbc="T T T"
Si      -5.18755056      -2.97728679       8.56252707
Si       1.70996575       1.90390931       7.30182254
Si      -1.19235637       3.84439668       6.04048981
Si       3.56959613       1.88361175       2.16322641
Si       0.07759032       2.95727024       8.98025357
Si       0.41301267       2.11100561       2.25661624
Si       2.08406801       3.46404155       3.22223828
Si      -1.24837138      -0.43899543       7.26185787
Si       3.27268649       5.06960859       0.07921893
Si      -0.64559897       0.86805814       4.02808013
Si       2.36168940       5.61015035       2.19744624
Si      -0.41163271       1.61937638       6.29749362
Si       0.41480889      -1.19951817       4.51258056
Si       2.95649173       2.72392530      -0.02043403
14
Lattice="6.538876314681363 1.8532312611222832 -1.866061346547118 0.6497123482490645 5.504212605204975 0.6629875777977479 -5.4277743828148575 -2.92937607222203 9.273177324740809" Properties=species:S:1:pos:R:3 unique_starting_index=128 config_type=initial n_minim_iter=11 stress="1.2045224784040457e-05 0.0005870378858309642 0.0002103216338832721 0.0005870378858309642 0.00035133096166401184 -0.0006141608402853167 0.0002103216338832721 -0.0006141608402853167 1.622847538898131e-05" pbc="T T T"
Si      -5.18954918      -2.99035366       8.57282843
Si       1.71613264       1.89283891       7.30337217
Si      -1.18568101       3.83414630       6.04340294
Si       3.57473480       1.88426215       2.16519639
Si       0.08447971       2.93204394       8.97378998
Si       0.42173494       2.11121751       2.25614719
Si       2.09666183       3.45973112       3.22592878
Si      -1.24121188      -0.45060221       7.27279443
Si       3.27304138       5.07034130       0.07946001
Si      -0.63798523       0.85868278       4.02930188
Si       2.37860849       5.60900035       2.19997064
Si      -0.40373537       1.61015320       6.30057743
Si       0.41526709      -1.20658207       4.52188113
Si       2.96301506       2.72564767      -0.02112131
14
Lattice="6.544937332672525 1.8475507749024622 -1.864629532488755 0.647379485119359 5.507484783759167 0.6722133472288331 -5.436137004882712 -2.9112150066834057 9.263605739936237" Properties=species:S:1:pos:R:3 unique_starting_index=128 config_type=initial n_minim_iter=12 stress="0.00017734803835228594 0.0003265007708281843 -0.00032832607994151157 0.0003265007708281843 0.0006972470225506829 0.00024826379187503275 -0.00032832607994151157 0.00024826379187503275 -0.000631333502189378" pbc="T T T"
Si      -5.20379992      -2.96973063       8.56506492
Si       1.71058469       1.90432321       7.29417707
Si      -1.19727832       3.85274750       6.04982367
Si       3.57890127       1.88969205       2.16346601
Si       0.06985619       2.93745160       8.95179382
Si       0.42089167       2.12252145       2.25827576
Si       2.09769648       3.46408488       3.23270814
Si      -1.24156792      -0.43952916       7.27466989
Si       3.26675112       5.06986054       0.09226157
Si      -0.63539306       0.86563693       4.02519169
Si       2.38778917       5.61543245       2.21382935
Si      -0.40385455       1.62251339       6.29529883
Si       0.41182673      -1.19885948       4.51975340
Si       2.96536041       2.72668924      -0.01463833
14
Lattice="6.540866066803112 1.8396133214900423 -1.8594114382824647 0.6428171974285947 5.499411254135931 0.6712151577730315 -5.420961537402859 -2.906797782585819 9.271099420935899" Properties=species:S:1:pos:R:3 unique_starting_index=128 config_type=initial n_minim_iter=13 stress="-2.232593341234593e-05 -0.0001224969109984381 2.7744523594680187e-05 -0.0001224969109984381 6.50443729193675e-05 8.906821311620956e-05 2.7744523594680187e-05 8.906821311620956e-05 -0.00010245666077129812" pbc="T T T"
Si      -5.19262084      -2.96379847       8.57325502
Si       1.71956455       1.89569913       7.30320463
Si      -1.19554604       3.84847817       6.05731724
Si       3.58204912       1.88434721       2.16999760
Si       0.07380098       2.92217851       8.95165258
Si       0.42207314       2.12152321       2.26117430
Si       2.09934747       3.45505652       3.24065400
Si      -1.22875958      -0.44316771       7.28737085
Si       3.25822947       5.05950026       0.09690867
Si      -0.62808947       0.86328134       4.02778123
Si       2.39106867       5.60505824       2.22098353
Si      -0.39557857       1.61779964       6.30034808
Si       0.41832119      -1.20021909       4.52911894
Si       2.96182944       2.72138920      -0.01046146
14
Lattice="6.537062728068655 1.8288667518577648 -1.8519094386023889 0.6398363319016562 5.4789800784587745 0.6709229169472789 -5.397138507051459 -2.899472165516138 9.296869075184452" Properties=species:S:1:pos:R:3 unique_starting_index=128 config_type=initial n_minim_iter=14 stress="-5.6146284544577456e-05 -0.0006650156314233755 0.00021591317537235052 -0.0006650156314233755 -0.0011076582562688161 -8.393618103501867e-05 0.00021591317537235052 -8.393618103501867e-05 0.0009759488045616369" pbc="T T T"
Si      -5.18430246      -2.94711650       8.60026118
Si       1.74292220       1.87669493       7.32202725
Si      -1.19456951       3.83951677       6.08761644
Si       3.59522305       1.87834377       2.18553618
Si       0.07283936       2.86915405       8.93633461
Si       0.43112180       2.12593993       2.26716011
Si       2.11211599       3.43836498       3.26610944
Si      -1.20068966      -0.44778506       7.32240538
Si       3.23530229       5.03829139       0.11431076
Si      -0.61058015       0.85753136       4.03397568
Si       2.41694959       5.58558958       2.25163496
Si      -0.38177357       1.61090265       6.31292709
Si       0.42925600      -1.20467503       4.55671498
Si       2.95900365       2.71044569       0.00163014
14
Lattice="6.5397261799257365 1.8387169333709374 -1.8463431540280686 0.6502387266974343 5.4767719758054625 0.6731854916699685 -5.393813259755262 -2.9053635935040716 9.298297588643802" Properties=species:S:1:pos:R:3 unique_starting_index=128 config_type=initial n_minim_iter=15 stress="-0.0002048099166354766 -0.0002080809041209354 8.697552641716801e-05 -0.0002080809041209354 -0.0004997198700296558 -4.897649380862099e-05 8.697552641716801e-05 -4.897649380862099e-05 0.00036609620829280314" pbc="T T T"
Si      -5.19061029      -2.94833395       8.60407891
Si       1.76152434       1.87357539       7.32006839
Si      -1.18840634       3.84058607       6.10567792
Si       3.61049960       1.89241824       2.19417635
Si       0.06808191       2.83048961       8.89999785
Si       0.44004545       2.13861889       2.26196967
Si       2.12466659       3.44185082       3.27980882
Si      -1.18425847      -0.44340420       7.33061266
Si       3.22601456       5.04278433       0.12863017
Si      -0.60225268       0.85855214       4.02968043
Si       2.45010390       5.59191700       2.27792026
Si      -0.37442534       1.61366286       6.31017921
Si       0.43289528      -1.20680372       4.56895326
Si       2.96309564       2.71396055       0.01206884
14
Lattice="6.547093102565985 1.8467393656388484 -1.8452355097948614 0.6571266579796128 5.480830393035396 0.6747070644414035 -5.403202542564095 -2.9096279671336855 9.289714108047203" Properties=species:S:1:pos:R:3 unique_starting_index=128 config_type=initial n_minim_iter=16 stress="-0.0001698116567677159 0.00014024895667120505 -3.681064143655024e-05 0.00014024895667120505 0.00016935530547067726 2.224548842820337e-05 -3.681064143655024e-05 2.224548842820337e-05 -0.00016513311291046" pbc="T T T"
Si      -5.19861661      -2.95644124       8.59732760
Si       1.76677230       1.87652584       7.31217511
Si      -1.18535458       3.84346368       6.10616131
Si       3.61883825       1.90446645       2.19585637
Si       0.06363122       2.82353079       8.88144786
Si       0.43995496       2.14372436       2.25562643
Si       2.12498679       3.44792717       3.27826853
Si      -1.18335468      -0.43905735       7.32501706
Si       3.23025377       5.05171449       0.13047984
Si      -0.60454228       0.86239737       4.02406814
Si       2.46215753       5.60048048       2.28296473
Si      -0.37270870       1.61708232       6.30421889
Si       0.43238428      -1.20465715       4.56744263
Si       2.96796919       2.71923387       0.01452722
14
Lattice="6.572612543006583 1.8585722693636881 -1.839392012845372 0.6711099895887388 5.480278425939498 0.6773283015931185 -5.4245957168435375 -2.914379615133326 9.274105133040342" Properties=species:S:1:pos:R:3 unique_starting_index=128 config_type=initial n_minim_iter=17 stress="0.0004493279991767481 0.000636588299886892 -0.00022955477764534854 0.000636588299886892 0.001366887797006897 0.00010119679176306438 -0.00022955477764534854 0.00010119679176306438 -0.0008968328698012826" pbc="T T T"
Si      -5.21878734      -2.97289327       8.58636151
Si       1.78857494       1.87196366       7.29309411
Si      -1.17863597       3.84573386       6.11121833
Si       3.64767621       1.92939839       2.20845669
Si       0.04996086       2.79105619       8.83216658
Si       0.44077222       2.15079490       2.24213574
Si       2.12587173       3.45406301       3.27735056
Si      -1.17394448      -0.43155002       7.32392848
Si       3.23655280       5.06434523       0.13908544
Si      -0.60800654       0.87001313       4.01074395
Si       2.49819323       5.61108882       2.30157347
Si      -0.36062487       1.62357287       6.29469800
Si       0.43569893      -1.19812003       4.57079046
Si       2.98658765       2.72339348       0.02207862
14
Lattice="6.581662014751398 1.8474232995658124 -1.8375723006197413 0.6670326826574904 5.461204602878346 0.6733399848979958 -5.424454086851175 -2.907832926992656 9.281120376339302" Properties=species:S:1:pos:R:3 unique_starting_index=128 config_type=initial n_minim_iter=18 stress="-0.00029066080524015454 -0.00010908846844353586 -4.19980259039844e-05 -0.00010908846844353586 8.550301370077252e-05 -0.0001507153670490576 -4.19980259039844e-05 -0.0001507153670490576 3.7127945517260644e-06" pbc="T T T"
Si      -5.21422882      -2.98109245       8.59110659
Si       1.80533723       1.84632786       7.28667592
Si      -1.17288613       3.83290259       6.10761587
Si       3.65488723       1.92138468       2.22691564
Si       0.04454877       2.77588702       8.83992085
Si       0.43900224       2.12819898       2.24310545
Si       2.11271796       3.44271200       3.26904893
Si      -1.16860613      -0.43841522       7.33703382
Si       3.23370830       5.05431331       0.13802770
Si      -0.61512926       0.86841367       4.01184739
Si       2.49560394       5.59404600       2.30156877
Si      -0.34965915       1.62188879       6.30584722
Si       0.44070259      -1.19335387       4.57581369
Si       3.00094706       2.70400942       0.01922309
14
Lattice="6.588009378267491 1.8427554224310707 -1.8258238386053582 0.6710664296314526 5.441206530349861 0.6750833920823426 -5.408476025036363 -2.9020260199947576 9.296017030162034" Properties=species:S:1:pos:R:3 unique_starting_index=128 config_type=initial n_minim_iter=19 stress="0.00031337243881577296 -0.00023352716699486987 -3.4577881650467786e-05 -0.00023352716699486987 -0.000309677811471076 -8.944456650926892e-05 -3.4577881650467786e-05 -8.944456650926892e-05 0.0003189597757882121" pbc="T T T"
Si      -5.21638907      -2.96989870       8.60595658
Si       1.83845803       1.82446801       7.28945130
Si      -1.16665871       3.82962377       6.13449408
Si       3.67677774       1.92249241       2.25015308
Si       0.03939812       2.71695480       8.80683775
Si       0.45327745       2.13132467       2.24588365
Si       2.12859393       3.43224150       3.29175544
Si      -1.13707240      -0.43987797       7.36888683
Si       3.21221562       5.04067694       0.16299886
Si      -0.59920504       0.86439568       4.01351750
Si       2.53670947       5.58316767       2.34087421
Si      -0.32886388       1.62232863       6.31629149
Si       0.45075354      -1.19407558       4.60096420
Si       3.01372749       2.69121742       0.03454663
14
Lattice="6.585965622849158 1.854645811669794 -1.7970268392614417 0.6914158566178169 5.4217838568245424 0.6824373459145976 -5.36805906862902 -2.9053372155902415 9.304565378945666" Properties=species:S:1:pos:R:3 unique_starting_index=128 config_type=initial n_minim_iter=20 stress="-0.0010667041460585476 0.00023486010548990494 -0.00012405762828120856 0.00023486010548990494 -0.0013922669334258512 0.0007775126286593538 -0.00012405762828120856 0.0007775126286593538 -0.0009386821156840048" pbc="T T T"
Si      -5.20913042      -2.98185146       8.59986841
Si       1.91917671       1.78734836       7.28672574
Si      -1.12172175       3.84613186       6.16309854
Si       3.69516283       1.93701895       2.30237738
Si       0.05494077       2.64969609       8.78174739
Si       0.48027688       2.12561760       2.24193933
Si       2.14329351       3.43799682       3.31893890
Si      -1.06911806      -0.43991358       7.39563072
Si       3.18811443       5.04034092       0.20921211
Si      -0.57680565       0.86182376       4.03107981
Si       2.60086534       5.59533706       2.40051603
Si      -0.27715131       1.62988369       6.34382755
Si       0.46042397      -1.18503796       4.62870480
Si       3.04752853       2.67789852       0.07585365
14
Lattice="6.591376736590168 1.8613782328378263 -1.795192979974402 0.6942123332927868 5.431269556477504 0.679215635254831 -5.370217652978085 -2.9179090808245087 9.301790755838773" Properties=species:S:1:pos:R:3 unique_starting_index=128 config_type=initial n_minim_iter=21 stress="-0.0006004720118455111 0.00017600529511311864 2.8394497225285044e-05 0.00017600529511311864 -0.0003307859782325685 0.0004040231126900002 2.8394497225285044e-05 0.0004040231126900002 -0.00048362607992717254" pbc="T T T"
Si      -5.20748216      -3.00821238       8.59193854
Si       1.93154730       1.78152553       7.28899049
Si      -1.11016592       3.85122067       6.15387552
Si       3.69355352       1.94369556       2.30640147
Si       0.06509049       2.65917904       8.79610351
Si       0.47293627       2.12157202       2.23390718
Si       2.13088512       3.44404867       3.30969688
Si      -1.06287106      -0.44609021       7.38877181
Si       3.20010747       5.05033227       0.20172974
Si      -0.58117708       0.86462500       4.03749148
Si       2.59689840       5.60593897       2.38807470
Si      -0.26751826       1.62548771       6.34743659
Si       0.46081590      -1.18305706       4.62473799
Si       3.05324281       2.68587621       0.08016166
