18
Lattice="7.15897739641013 0.7109918435766379 -0.8012799893321777 -1.1586260639192492 6.242537528013704 -0.2184746621621002 -4.0572176709942545 -2.9756583429532366 10.311096511192654" Properties=species:S:1:pos:R:3 unique_starting_index=108 config_type=initial n_minim_iter=1 energy=-2924.1035056885617 free_energy=-2924.1035056885617 pbc="T T T"
Si       1.97460643      -1.36984034       8.76769790
Si       1.57847153       0.93463847       7.51870317
Si      -3.10735877       4.18495403       4.97889779
Si       4.25721508       5.06636284       1.63707675
Si       3.48473215       0.06615921       5.60636293
Si       2.94791062       6.73856455       0.62671866
Si       2.43670373       4.00727042       0.29874971
Si       1.34546037      -0.95531899       6.04639503
Si       1.69990671       4.31509006       4.12108460
Si       6.27943834       3.68531564      -0.38529313
Si       0.78057134       4.85325140       2.04701814
Si       3.61900257      -0.06882024       3.15769188
Si       2.33218385       4.08301702       6.37205883
Si       0.33000646       2.89540661       5.55453253
Si      -0.60921382       3.95893623       3.68850587
Si      -2.50894178       2.85481861       9.23398387
Si       4.22768487       2.49889130      -0.24292632
Si      -0.54090615       5.77180544       0.16105909
18
Lattice="7.244455695243811 0.7356583876758153 -0.7381573527778498 -1.1599928304862477 6.122713083376361 -0.38836858335227353 -4.013970682974012 -3.1935668651304674 10.216264119864688" Properties=species:S:1:pos:R:3 unique_starting_index=108 config_type=initial n_minim_iter=2 stress="-0.006508230854424617 -0.0029546130532050294 -0.0007527058340409699 -0.0029546130532050294 -0.0004116671282438031 -0.0072809589143870024 -0.0007527058340409699 -0.0072809589143870024 -0.0017263074498745999" pbc="T T T"
Si       2.09082743      -1.56590805       8.64911678
Si       1.70839210       0.72890168       7.33342088
Si      -3.20851345       3.95441135       4.82759664
Si       4.33120359       4.90126862       1.50897723
Si       3.52185879      -0.00457734       5.59576071
Si       3.01809685       6.65052776       0.46884246
Si       2.47004978       3.87194348       0.21146831
Si       1.38840749      -1.14470398       5.94739774
Si       1.78943254       4.08979080       3.98361842
Si       6.38550689       3.66923376      -0.46556239
Si       0.84665713       4.73964178       1.93423968
Si       3.64413516      -0.03211135       3.17761848
Si       2.47946961       3.82763223       6.21265347
Si       0.46135320       2.68000695       5.45089812
Si      -0.49859509       3.78064274       3.60309030
Si      -2.42519336       2.51635227       9.05654077
Si       4.30017925       2.52502878      -0.28580659
Si      -0.56188953       5.57219116       0.02016083
18
Lattice="7.42579860104221 0.7914167051989157 -0.6753945868535323 -1.1334757487264808 6.043741295800174 -0.3765946793075112 -4.061011838489756 -3.165150906213458 10.138824714213019" Properties=species:S:1:pos:R:3 unique_starting_index=108 config_type=initial n_minim_iter=3 stress="0.008064429326970886 0.0024588318771848446 0.0016473095567896615 0.0024588318771848446 0.004372665062103036 -0.003669331116835144 0.0016473095567896615 -0.003669331116835144 0.004415852164060879" pbc="T T T"
Si       2.20397583      -1.50774875       8.59071104
Si       1.83938448       0.76165940       7.27176290
Si      -3.28569548       3.89035660       4.83022369
Si       4.49275482       4.87046347       1.54253163
Si       3.61310669       0.08419506       5.62330528
Si       3.16807632       6.63883400       0.51018442
Si       2.56063413       3.81900044       0.23957541
Si       1.43988889      -1.13434108       5.89764593
Si       1.91500349       4.05047057       3.99881595
Si       6.58932474       3.70657330      -0.43327966
Si       0.94336082       4.72072850       1.96949693
Si       3.72703450       0.07597183       3.21362002
Si       2.65728098       3.81711762       6.22512997
Si       0.58583853       2.65754716       5.46978787
Si      -0.40311180       3.74301477       3.64169605
Si      -2.37835451       2.46856023       9.03819516
Si       4.43946557       2.57121143      -0.25641970
Si      -0.54195332       5.45492159       0.04290408
18
Lattice="7.4062514613697665 0.7802710182609538 -0.667545968786386 -1.1329310202143805 6.001634052401856 -0.34838224362777015 -4.048025869519732 -3.0987480644362293 10.072402890781932" Properties=species:S:1:pos:R:3 unique_starting_index=108 config_type=initial n_minim_iter=4 stress="-0.0014331776647584786 0.0016924246994308079 0.001188984075246403 0.0016924246994308079 -0.004419958519899511 -0.0016958126602091448 0.001188984075246403 -0.0016958126602091448 -0.0051678789783905854" pbc="T T T"
Si       2.20175979      -1.46331786       8.53053080
Si       1.84029710       0.78842518       7.22491228
Si      -3.29371077       3.88582408       4.82957323
Si       4.47824307       4.83732732       1.55378535
Si       3.59322269       0.11387697       5.59936729
Si       3.15882884       6.60112801       0.53643425
Si       2.54956782       3.78603664       0.25504127
Si       1.43391751      -1.10685348       5.85536753
Si       1.91004863       4.03510257       3.99511300
Si       6.57381220       3.68206700      -0.42120376
Si       0.94332888       4.70169033       1.98505482
Si       3.70897053       0.10166319       3.20309160
Si       2.65622689       3.81475451       6.20978858
Si       0.59549531       2.65798850       5.46007678
Si      -0.39478883       3.73312175       3.64829417
Si      -2.37054394       2.48577528       9.00816640
Si       4.43042500       2.55939546      -0.24657082
Si      -0.54665674       5.40654632       0.06847219
18
Lattice="7.349970279439294 0.6862372986721806 -0.7178778256786243 -1.1984366304365364 6.0492151460343395 -0.2539326988009702 -4.0553950219734025 -2.920512247560902 10.17821861466305" Properties=species:S:1:pos:R:3 unique_starting_index=108 config_type=initial n_minim_iter=5 stress="-0.004224854741250784 -0.006257513808281837 -0.001878996485019681 -0.006257513808281837 0.003262328974358032 0.0020423199476623383 -0.001878996485019681 0.0020423199476623383 0.003991271948978585" pbc="T T T"
Si       2.14768245      -1.38155153       8.57644595
Si       1.77267877       0.88597138       7.28174980
Si      -3.37256930       4.02941530       4.98767247
Si       4.37326803       4.82712971       1.60828257
Si       3.49849920       0.16134514       5.64909727
Si       3.05031228       6.61864089       0.61878998
Si       2.47214386       3.77267672       0.29934369
Si       1.39367529      -1.03733393       5.89543627
Si       1.81240675       4.09238106       4.08111345
Si       6.48985726       3.63008594      -0.43066188
Si       0.87241210       4.76233902       2.08175698
Si       3.63621268       0.12828092       3.23156889
Si       2.55645819       3.89479201       6.32020407
Si       0.54635182       2.72804831       5.58103221
Si      -0.46374532       3.81519741       3.76216407
Si      -2.45262037       2.65467183       9.18502708
Si       4.38091803       2.53760997      -0.25075796
Si      -0.61685262       5.42768400       0.15826199
18
Lattice="7.384859751382465 0.7727875362594376 -0.7217141459779184 -1.1225675674276692 6.0015277426517715 -0.2432845371018569 -4.12058871156928 -2.943543549460269 10.122756814693131" Properties=species:S:1:pos:R:3 unique_starting_index=108 config_type=initial n_minim_iter=6 stress="-0.0008503049954349681 0.0007690393024678559 -0.001378732886012999 0.0007690393024678559 -0.0010142701386161004 0.0034146526990807293 -0.001378732886012999 0.0034146526990807293 0.0006024932075477352" pbc="T T T"
Si       2.13145487      -1.34855687       8.51330304
Si       1.78511052       0.91981045       7.21762331
Si      -3.32253684       3.98781162       4.98080916
Si       4.44832206       4.85097003       1.60009276
Si       3.48593503       0.19952147       5.61004744
Si       3.14556550       6.61289394       0.61983053
Si       2.51934172       3.78013653       0.30780266
Si       1.38632392      -0.98603909       5.87061056
Si       1.85371397       4.10208463       4.05302142
Si       6.56210957       3.69301392      -0.43737619
Si       0.94173825       4.75754518       2.07438011
Si       3.63264320       0.18335690       3.22417616
Si       2.61633327       3.91168811       6.27946088
Si       0.60062862       2.69988775       5.57004050
Si      -0.44287915       3.79050218       3.74280807
Si      -2.44329143       2.61744245       9.14860165
Si       4.44335041       2.59197027      -0.25771816
Si      -0.54709787       5.38106079       0.16666652
18
Lattice="7.4240674937240465 0.7744666679113239 -0.6724722324322326 -1.1347528290024136 5.99666170026939 -0.29943288595233997 -4.073866027809024 -3.020155653881597 10.04331991241269" Properties=species:S:1:pos:R:3 unique_starting_index=108 config_type=initial n_minim_iter=7 stress="-0.000831139242753816 0.0003162502283875486 0.00205816481524068 0.0003162502283875486 -0.0011358507536062131 -0.0001313989818343005 0.00205816481524068 -0.0001313989818343005 -0.0013099453055724181" pbc="T T T"
Si       2.20952262      -1.42799483       8.45659810
Si       1.85443172       0.87131190       7.13926030
Si      -3.31565459       3.95720886       4.90505503
Si       4.48069717       4.81937599       1.57600173
Si       3.52198203       0.15026372       5.58926517
Si       3.16456106       6.59723303       0.57967563
Si       2.52320713       3.76085225       0.29975599
Si       1.43727708      -1.02823134       5.84322501
Si       1.88552591       4.06222456       3.99934526
Si       6.60092327       3.69356527      -0.43290612
Si       0.96259917       4.74572751       2.02475860
Si       3.65796811       0.17608462       3.23829259
Si       2.68648003       3.85135868       6.20911051
Si       0.67193307       2.63128006       5.52666434
Si      -0.43233992       3.75501951       3.68860109
Si      -2.40183862       2.53516206       9.05278506
Si       4.48221466       2.60863571      -0.25487972
Si      -0.55543554       5.35535973       0.11997116
18
Lattice="7.464458672185532 0.7804841291476718 -0.7450188535268761 -1.133996460555072 5.997816944642844 -0.29990632852926785 -4.200700440913292 -3.04535031792533 10.048185909717272" Properties=species:S:1:pos:R:3 unique_starting_index=108 config_type=initial n_minim_iter=8 stress="0.003039981822469662 9.332474233323629e-05 -0.003315959655454268 9.332474233323629e-05 -0.00122249921503727 -0.001522114902815828 -0.003315959655454268 -0.001522114902815828 -0.0026459921446840293" pbc="T T T"
Si       2.13418149      -1.45940914       8.38907057
Si       1.79152593       0.87540241       7.07539027
Si      -3.37264541       3.96359593       4.92121667
Si       4.48216596       4.81266441       1.51566459
Si       3.47089481       0.12779015       5.52376209
Si       3.17409274       6.59039465       0.53012484
Si       2.52299022       3.75726101       0.27721134
Si       1.38180593      -1.03772559       5.81402691
Si       1.84609391       4.05813936       3.95443915
Si       6.63862974       3.69555765      -0.51223636
Si       0.94223199       4.75044206       1.98889841
Si       3.62891949       0.17879448       3.19715235
Si       2.64289929       3.83697324       6.13711288
Si       0.64093573       2.60955986       5.49888547
Si      -0.48965979       3.74677845       3.67440334
Si      -2.51826022       2.51324542       9.03991529
Si       4.51889139       2.62493710      -0.30646794
Si      -0.55490060       5.35030109       0.11612310
18
Lattice="7.376963918597752 0.8073345251526219 -0.7173693738251568 -1.0975949221611863 6.020283847572575 -0.28290355853313154 -4.118729067200239 -3.034932491935185 10.090685525512168" Properties=species:S:1:pos:R:3 unique_starting_index=108 config_type=initial n_minim_iter=9 stress="-0.0018356903769501706 0.002095104597315799 0.0008787679918815485 0.002095104597315799 0.0017933782479564728 -0.0002099060432760312 0.0008787679918815485 -0.0002099060432760312 0.0018790114758933721" pbc="T T T"
Si       2.14749844      -1.44578562       8.43490088
Si       1.81282029       0.94131783       7.12571337
Si      -3.28353690       4.01495466       4.97270909
Si       4.45006193       4.84911015       1.56756592
Si       3.45676307       0.14484199       5.56955844
Si       3.16621241       6.62229771       0.57097577
Si       2.49940921       3.77815561       0.32099934
Si       1.38861643      -1.01680870       5.86940667
Si       1.84854241       4.10333625       4.00597667
Si       6.57533822       3.72386983      -0.48348100
Si       0.94529833       4.78999143       2.01225411
Si       3.59352056       0.21076311       3.24060314
Si       2.66927823       3.88372346       6.19303122
Si       0.69619357       2.64012413       5.55393367
Si      -0.47347696       3.77685669       3.71770095
Si      -2.45560529       2.55088931       9.11050128
Si       4.48917582       2.66492880      -0.27957981
Si      -0.52074901       5.37258373       0.13904476
18
Lattice="7.4614805003974505 0.7189668437974852 -0.6800620935600864 -1.1847692438258537 5.971516251551484 -0.28420146223545545 -4.089650562011237 -2.9534630877273704 10.04247218718176" Properties=species:S:1:pos:R:3 unique_starting_index=108 config_type=initial n_minim_iter=10 stress="0.0029946259462539666 -0.002441563003977751 0.0016565026591308422 -0.002441563003977751 -0.0022906803545159164 0.0007666682191425605 0.0016565026591308422 0.0007666682191425605 0.0024350020195797223" pbc="T T T"
Si       2.23633314      -1.46519127       8.40070379
Si       1.87290465       0.93768558       7.10970622
Si      -3.36745954       4.02782159       4.95961551
Si       4.44940321       4.74482456       1.59143703
Si       3.53829492       0.11306159       5.57394034
Si       3.13592416       6.52603807       0.58397767
Si       2.48330920       3.70044238       0.34646109
Si       1.43004127      -1.04137996       5.86455607
Si       1.84392277       4.04610672       4.00231733
Si       6.62271746       3.60530260      -0.46502612
Si       0.89183552       4.73683839       2.01598505
Si       3.64448540       0.18446685       3.23990581
Si       2.71117254       3.81332453       6.18606247
Si       0.71787713       2.62211354       5.53395768
Si      -0.49923969       3.75035083       3.72296582
Si      -2.48859993       2.55285789       9.08269661
Si       4.51863944       2.59804162      -0.24998769
Si      -0.59305356       5.32027206       0.14415890
18
Lattice="7.458515320085847 0.751333433161661 -0.6987172096232535 -1.1636191991714722 6.036001202899966 -0.29955176205560263 -4.129974307861093 -3.033807391060927 9.956154422511236" Properties=species:S:1:pos:R:3 unique_starting_index=108 config_type=initial n_minim_iter=11 stress="0.0010811156599386858 -0.0002718311661039404 -0.0001224307847918523 -0.0002718311661039404 0.004548548019980139 -0.00033443257338468745 -0.0001224307847918523 -0.00033443257338468745 -0.0030606688731356956" pbc="T T T"
Si       2.20542956      -1.52497873       8.28155579
Si       1.86782304       0.95006285       7.01004097
Si      -3.39089494       4.06234875       4.91493218
Si       4.44252105       4.79562423       1.54772903
Si       3.52308103       0.11444108       5.50696659
Si       3.15577750       6.60988547       0.53836993
Si       2.48417039       3.73244809       0.33452441
Si       1.38884984      -1.08945780       5.80650528
Si       1.84131950       4.08586551       3.92927907
Si       6.63793441       3.65686009      -0.51347081
Si       0.88169947       4.79041272       1.97996856
Si       3.61842303       0.20221063       3.18412787
Si       2.72798955       3.83490250       6.09036382
Si       0.72421242       2.63970461       5.45240363
Si      -0.49088054       3.78123492       3.68796551
Si      -2.52268029       2.53507439       8.99088214
Si       4.52515027       2.65406783      -0.26475860
Si      -0.58086087       5.37190413       0.13135477
18
Lattice="7.42656695196917 0.7617993453510316 -0.7313225017118833 -1.144508793164008 5.986993413079794 -0.3089201052942776 -4.151602888868821 -3.038893515672401 10.05507501722517" Properties=species:S:1:pos:R:3 unique_starting_index=108 config_type=initial n_minim_iter=12 stress="-0.0016328147615540536 0.0003119676235781518 -0.0011042261784872589 0.0003119676235781518 -0.0006163984472167002 -0.0010094967815284907 -0.0011042261784872589 -0.0010094967815284907 0.00020865029005320718" pbc="T T T"
Si       2.16690664      -1.54500781       8.32672774
Si       1.84778049       0.94798033       7.05146954
Si      -3.38036463       4.03138362       4.96370855
Si       4.41616742       4.75940623       1.54395938
Si       3.49412160       0.10488537       5.54001669
Si       3.15446040       6.55786232       0.51503843
Si       2.47169074       3.70097572       0.33401176
Si       1.35921308      -1.08778941       5.87058003
Si       1.82580854       4.06140840       3.93897310
Si       6.62038247       3.63055826      -0.55815093
Si       0.86442508       4.75297642       1.98400889
Si       3.58338328       0.20029830       3.18862988
Si       2.72073606       3.79349256       6.11622681
Si       0.71687615       2.60887998       5.47946381
Si      -0.50498885       3.74339239       3.71398871
Si      -2.54947448       2.48835249       9.07208853
Si       4.51070440       2.64820195      -0.27871472
Si      -0.56876951       5.33227467       0.12940831
18
Lattice="7.417606271112469 0.7394671352778737 -0.7264778182653069 -1.1610549837371058 5.993175161669614 -0.2889178708890523 -4.139169634772681 -2.99723079981715 10.012479142147189" Properties=species:S:1:pos:R:3 unique_starting_index=108 config_type=initial n_minim_iter=13 stress="-0.0011735220851079517 3.3407067979903764e-05 -0.00012207334975849291 3.3407067979903764e-05 -0.0017481667853097955 0.001286386330462745 -0.00012207334975849291 0.001286386330462745 -0.0006344796675848398" pbc="T T T"
Si       2.17474643      -1.55279808       8.27468813
Si       1.85949305       0.98480575       7.02823166
Si      -3.37251430       4.08257581       4.96188971
Si       4.38490375       4.75198171       1.56880288
Si       3.50184505       0.10745027       5.52343911
Si       3.13496169       6.54527025       0.52628282
Si       2.44797406       3.69176746       0.36052841
Si       1.36832113      -1.05970502       5.88336300
Si       1.80959222       4.09098083       3.93037719
Si       6.61035444       3.59330841      -0.55921149
Si       0.82463918       4.76048948       1.99403231
Si       3.57263718       0.19308922       3.16644287
Si       2.73231306       3.80376883       6.09803926
Si       0.71588421       2.62445102       5.45119370
Si      -0.53561289       3.76000872       3.70895471
Si      -2.57152910       2.52137887       9.05787095
Si       4.49701624       2.63953271      -0.25368623
Si      -0.58653304       5.34940374       0.15205080
18
Lattice="7.438076200699499 0.7352952294832049 -0.7447741886488376 -1.167916963221577 5.967627280617903 -0.31578252776772614 -4.169627082484219 -3.029830293510001 10.035030910556223" Properties=species:S:1:pos:R:3 unique_starting_index=108 config_type=initial n_minim_iter=14 stress="6.858327457000714e-05 0.0005558537540616368 -0.0002842271021451443 0.0005558537540616368 -0.002897045825267427 0.0007644347790565671 -0.0002842271021451443 0.0007644347790565671 0.001311530748112011" pbc="T T T"
Si       2.17378304      -1.63629863       8.22070423
Si       1.89284003       0.97345795       6.98849708
Si      -3.40347523       4.07462054       4.96099013
Si       4.36082839       4.70510166       1.55952509
Si       3.49368384       0.09815052       5.53137588
Si       3.14717691       6.51239852       0.47048136
Si       2.42660304       3.64335223       0.35922107
Si       1.36832213      -1.07599143       5.92688086
Si       1.80417300       4.07311698       3.89819131
Si       6.64623914       3.55273912      -0.63328215
Si       0.78140439       4.73885981       1.98310884
Si       3.54648562       0.19627299       3.14460439
Si       2.78105522       3.74163686       6.05660618
Si       0.73294309       2.57591147       5.41158598
Si      -0.55183326       3.72774055       3.70881786
Si      -2.61900624       2.44114401       9.07796423
Si       4.50300977       2.64760602      -0.24968553
Si      -0.61405212       5.31836199       0.14370031
18
Lattice="7.438693647931725 0.7135279407049577 -0.7421001212315581 -1.197844840709502 6.020659998841737 -0.36490948135301987 -4.152906041433835 -3.115042176629712 9.996693671125879" Properties=species:S:1:pos:R:3 unique_starting_index=108 config_type=initial n_minim_iter=15 stress="0.0019331890670168587 -0.0003273071265551402 0.00016884589700288914 -0.0003273071265551402 0.002806801851416951 -0.001011698525441247 0.00016884589700288914 -0.001011698525441247 0.0010127728893286878" pbc="T T T"
Si       2.18976878      -1.76557178       8.13605767
Si       1.92919675       0.93218730       6.93610339
Si      -3.41013525       4.10141997       4.88382747
Si       4.31214839       4.70484315       1.54089368
Si       3.50696036       0.06403958       5.50364675
Si       3.12853942       6.54426305       0.39462316
Si       2.38609978       3.63647405       0.33552313
Si       1.40650455      -1.12560020       5.93321637
Si       1.79060100       4.08346866       3.85445135
Si       6.64602274       3.53100893      -0.69199511
Si       0.71840162       4.75845830       1.94047207
Si       3.53589668       0.16949645       3.11255282
Si       2.80469065       3.69796208       5.97277091
Si       0.72738106       2.54865519       5.31479441
Si      -0.56485568       3.73600039       3.66874837
Si      -2.63638809       2.36514188       9.02800634
Si       4.47480209       2.65984128      -0.22910658
Si      -0.67090809       5.36516608       0.11091013
18
Lattice="7.441052326657241 0.7071572637363388 -0.7271786423243132 -1.20157024868791 6.001356331886226 -0.35821129773173765 -4.134395802593645 -3.08946812024352 9.981035265351386" Properties=species:S:1:pos:R:3 unique_starting_index=108 config_type=initial n_minim_iter=16 stress="-0.0013966847518011743 -0.0004220659118557891 0.0007602619039269093 -0.0004220659118557891 0.0002489956366002855 -8.741384851854157e-06 0.0007602619039269093 -8.741384851854157e-06 -0.0036240006198864673" pbc="T T T"
Si       2.20790224      -1.76657952       8.09016525
Si       1.95355444       0.95635740       6.93099318
Si      -3.40482593       4.10348479       4.88312101
Si       4.29977630       4.68598753       1.56281673
Si       3.51666831       0.09098045       5.48890562
Si       3.13704479       6.52517692       0.40092675
Si       2.35447846       3.60407458       0.33681128
Si       1.45264153      -1.11573339       5.90476748
Si       1.79577705       4.07174488       3.88736823
Si       6.64607537       3.51870761      -0.69862032
Si       0.72074578       4.75663090       1.95243547
Si       3.52577296       0.20811936       3.14576811
Si       2.82091983       3.68598959       5.96483067
Si       0.76629373       2.52620280       5.31913459
Si      -0.54929658       3.74080786       3.70243241
Si      -2.61494191       2.33012090       9.05681072
Si       4.47943384       2.67775803      -0.19706382
Si      -0.70632772       5.32531435       0.12263280
18
Lattice="7.397681855658525 0.7118345687689237 -0.7532848800780817 -1.188912776162601 5.982487374620643 -0.36813676309591087 -4.1343960814832705 -3.10076608231809 10.104717128497189" Properties=species:S:1:pos:R:3 unique_starting_index=108 config_type=initial n_minim_iter=17 stress="1.2083400544844926e-05 -0.00032550024827808434 -0.0014382948504906466 -0.00032550024827808434 0.00042663713395144624 3.1642657934158096e-05 -0.0014382948504906466 3.1642657934158096e-05 0.0018644121012095435" pbc="T T T"
Si       2.16817042      -1.78099946       8.16282678
Si       1.92333380       0.94258448       7.03707258
Si      -3.36737059       4.07599801       4.91161065
Si       4.26127078       4.68499180       1.57604143
Si       3.52357664       0.09399649       5.52528809
Si       3.12718593       6.49645943       0.38443216
Si       2.32605486       3.59242252       0.32139566
Si       1.45960676      -1.11193546       5.96412867
Si       1.78805648       4.07405841       3.91755567
Si       6.60082019       3.50402743      -0.72686120
Si       0.71392987       4.72844005       1.97538648
Si       3.50807453       0.18979394       3.16550849
Si       2.78083370       3.66506909       6.01871327
Si       0.72925836       2.51054073       5.34933264
Si      -0.55634598       3.73502361       3.74294348
Si      -2.61914006       2.28487468       9.16921378
Si       4.43990785       2.67023778      -0.17956083
Si      -0.71866728       5.32173759       0.11574817
18
Lattice="7.404794824762956 0.7053884805675668 -0.7312253849832135 -1.196823384582993 5.958398995417671 -0.39366822356264514 -4.104136911184642 -3.121388672340759 10.084976398151497" Properties=species:S:1:pos:R:3 unique_starting_index=108 config_type=initial n_minim_iter=18 stress="0.0004149005377234692 0.0006510081066320282 -0.0008161447141659757 0.0006510081066320282 -0.0013560350903160626 0.00047623626482751707 -0.0008161447141659757 0.00047623626482751707 -0.0005665360707774556" pbc="T T T"
Si       2.20462754      -1.84660831       8.09869357
Si       1.97796406       0.94132214       7.01669084
Si      -3.35474482       4.06805809       4.88020321
Si       4.24134873       4.64822505       1.58656637
Si       3.56773575       0.09113865       5.52408535
Si       3.13701080       6.45268830       0.35829204
Si       2.28931531       3.54203705       0.33249858
Si       1.50552914      -1.12363034       5.97864827
Si       1.80790424       4.06135370       3.88281300
Si       6.60959460       3.46744220      -0.74982240
Si       0.69858261       4.70450846       1.97122844
Si       3.50393062       0.19438782       3.16353033
Si       2.83210815       3.61377066       5.98801308
Si       0.77541517       2.46428866       5.31640663
Si      -0.56066177       3.71913961       3.74482817
Si      -2.61859164       2.20992841       9.16608957
Si       4.44510773       2.68394474      -0.13697926
Si      -0.75218906       5.29105327       0.10355933
18
Lattice="7.401272347052855 0.7038767045026257 -0.7014002796150614 -1.1990624957832274 5.949630810696914 -0.406637148625229 -4.057971950890816 -3.1286500996178725 10.08374282672937" Properties=species:S:1:pos:R:3 unique_starting_index=108 config_type=initial n_minim_iter=19 stress="-0.00039053310088055704 0.0003163383387530398 0.000991524340455513 0.0003163383387530398 -0.0007048813432581647 -5.741641412381225e-05 0.000991524340455513 -5.741641412381225e-05 -0.00013573383807257298" pbc="T T T"
Si       2.23890285      -1.85118650       8.11352195
Si       2.00653762       0.92497649       7.03877781
Si      -3.32851448       4.04561145       4.86144645
Si       4.24823269       4.64283693       1.59573653
Si       3.60069765       0.09547096       5.54510610
Si       3.13796538       6.43531545       0.36792830
Si       2.27911782       3.52774050       0.33543513
Si       1.54218118      -1.12405569       5.97663997
Si       1.83278064       4.04605642       3.88173613
Si       6.59869733       3.46633834      -0.72214064
Si       0.72009307       4.69124218       1.97531665
Si       3.52277054       0.19461963       3.18252624
Si       2.84281997       3.60288348       6.00410098
Si       0.80070405       2.44788809       5.32828671
Si      -0.54209176       3.71566366       3.75036146
Si      -2.57950920       2.18926330       9.16643328
Si       4.44604965       2.68495153      -0.10983885
Si      -0.76096946       5.27814316       0.09248436
18
Lattice="7.399870601154887 0.6941560424037818 -0.6764757971286929 -1.2088735173658076 5.931941795995486 -0.42948903642297637 -4.014888764344202 -3.143311584928462 10.091725130490753" Properties=species:S:1:pos:R:3 unique_starting_index=108 config_type=initial n_minim_iter=20 stress="-0.00024392138164411984 -0.0007265750905371597 0.0009960790471532776 -0.0007265750905371597 0.0014772251656606005 -0.0002807734068645145 0.0009960790471532776 -0.0002807734068645145 -0.00035974460780906957" pbc="T T T"
Si       2.26833661      -1.88661067       8.09366038
Si       2.04383023       0.89835945       7.07045289
Si      -3.29331218       4.00607692       4.83093136
Si       4.23885052       4.62773728       1.59438483
Si       3.65877043       0.11032548       5.56638653
Si       3.13185940       6.38125327       0.36540424
Si       2.22818643       3.47353548       0.34127470
Si       1.60167045      -1.11883439       5.96985549
Si       1.86736476       4.01190675       3.85816429
Si       6.57966830       3.44548570      -0.70900538
Si       0.73030406       4.66101187       1.97147697
Si       3.54988175       0.20159059       3.18575615
Si       2.83270884       3.57722055       6.00154859
Si       0.83286798       2.41462333       5.32416995
Si      -0.52722914       3.71585758       3.77403804
Si      -2.57162068       2.13617072       9.17843118
Si       4.44508729       2.69176033      -0.04295782
Si      -0.79991845       5.25493463       0.07915044
18
Lattice="7.392483842420265 0.7149702958974297 -0.7018503398404329 -1.1867285478436211 5.9070223025843385 -0.43350531630809813 -4.049680075741365 -3.1574096174775925 10.134796192094948" Properties=species:S:1:pos:R:3 unique_starting_index=108 config_type=initial n_minim_iter=21 stress="0.0007542280455164136 -0.00011179979222319214 -0.0003762086395180351 -0.00011179979222319214 1.0372259606511964e-05 -0.00023943683872049173 -0.0003762086395180351 -0.00023943683872049173 0.0009024825693526453" pbc="T T T"
Si       2.22811169      -1.89271435       8.10843302
Si       2.03066966       0.89132224       7.09215209
Si      -3.27057147       3.97001338       4.84852690
Si       4.24805666       4.62587974       1.57451130
Si       3.65059645       0.10800038       5.56930754
Si       3.13340757       6.34550996       0.34953464
Si       2.21344937       3.44941143       0.34508810
Si       1.59069274      -1.09385502       5.99454752
Si       1.87316497       3.99134284       3.84730321
Si       6.58225815       3.44492767      -0.72445322
Si       0.72291682       4.63938413       1.95054838
Si       3.55486835       0.20513056       3.16761873
Si       2.80893565       3.58216156       5.99274875
Si       0.82216343       2.41034802       5.31897664
Si      -0.52102009       3.70028835       3.78106179
Si      -2.61166728       2.12203508       9.19944956
Si       4.44268101       2.68855816      -0.02274444
Si      -0.78313234       5.24676503       0.08486162
