8
Lattice="5.7791037245431 -1.5616007973216225e-80 2.0649191350739712e-65 -4.411218752094969e-81 4.732064439821853 -2.344184734424889e-16 -1.3689045657147373e-64 -1.0397395126364163e-16 5.779103724543105" Properties=species:S:1:pos:R:3 unique_starting_index=2 config_type=initial n_minim_iter=11 energy=-1300.5715799141822 free_energy=-1300.5715799141822 pbc="T T T"
Si       2.89001636       1.18311537       4.06827600
Si       2.88987905       1.18311537       1.70997419
Si       4.06909861       3.54876398       2.88905644
Si       1.71079680       3.54876398       2.88919375
Si       5.77943091       3.54876398       1.17872414
Si       0.00046449       3.54876398       4.59952605
Si       4.60034866       1.18311537       5.77860830
Si       1.17954675       1.18311537      -0.00035812
