24
Lattice="8.618141515604146 1.423024512969187 -0.9361452797262512 -3.076695379362773 6.478208327495902 0.6042650006390653 -0.9735647318146728 0.16354741998480796 8.855735890791534" Properties=species:S:1:pos:R:3 unique_starting_index=90 config_type=initial n_minim_iter=1 energy=-3896.690153569068 free_energy=-3896.690153569068 pbc="T T T"
Si       5.72170198       1.25197171       5.95141534
Si       0.99807666       2.75077285       0.45284012
Si       5.57719204       5.90690045       1.38663508
Si       1.18398506       0.58265656       2.05156252
Si       4.15516877       3.38176408       7.85706336
Si      -2.22992406       4.69295163       7.42388632
Si       0.66909792       2.61562065       3.26195957
Si       2.28629743       4.94807107       7.09656309
Si      -2.04033393       6.96248258       6.96764114
Si       5.08619560       3.27744874       5.05521781
Si       1.35570390       4.85593786       1.64836022
Si       3.67131841       7.49312964       1.89822095
Si       4.62021438       7.61527233      -0.18463888
Si       6.69776577       3.58103088       6.87677606
Si      -0.91400792       4.43635048       1.13816884
Si      -2.76702843       6.87629164       9.14161525
Si      -1.09994306       1.87745549       1.62490529
Si       4.46327642       5.61450768       7.57397859
Si       2.70308501       1.73570802       7.35442921
Si      -0.68294594       3.31283954       5.21753064
Si       0.81044950       5.70985048       5.41246461
Si       4.30513643       1.44068021       0.81863978
Si       5.83957412       4.34149287       3.15092137
Si       2.20030301       6.15731829       3.54302090
24
Lattice="8.534857460941465 1.359173028723485 -0.8722301424064436 -3.0698226771250137 6.367122100836285 0.6255580281597375 -0.919100448318313 0.22293153213568268 8.76732087641002" Properties=species:S:1:pos:R:3 unique_starting_index=90 config_type=initial n_minim_iter=2 stress="-0.012854489232918855 -0.0006080066666236591 -0.0007771508261854045 -0.0006080066666236591 -0.016942749222298572 0.0004157095542230284 -0.0007771508261854045 0.0004157095542230284 -0.013324204629606474" pbc="T T T"
Si       5.69307380       1.23665716       5.93048831
Si       0.98974584       2.69735123       0.46837027
Si       5.51570362       5.77995444       1.44808938
Si       1.18489760       0.58111297       2.04715315
Si       4.15784437       3.34902406       7.82876910
Si      -2.16970605       4.65392804       7.37448924
Si       0.67355303       2.58792852       3.24415158
Si       2.27994787       4.88277790       7.07567008
Si      -2.01819554       6.89487729       6.91651260
Si       5.04853769       3.23640896       5.06482116
Si       1.33987061       4.76477037       1.67577161
Si       3.62421300       7.35199924       1.95820963
Si       4.54545576       7.44905287      -0.11952890
Si       6.66729025       3.53642834       6.86688957
Si      -0.91635621       4.36366634       1.14838621
Si      -2.71416291       6.82212873       9.08756060
Si      -1.09279753       1.85596906       1.62594515
Si       4.43289344       5.54989100       7.56378012
Si       2.71424810       1.73745839       7.30973761
Si      -0.65516622       3.29044347       5.18836378
Si       0.80439640       5.62714984       5.40857866
Si       4.26094796       1.39620965       0.84914611
Si       5.80419163       4.25345263       3.17774627
Si       2.18149149       6.05363722       3.55684853
24
Lattice="8.589164411810184 1.1590238935040753 -0.5611439213628798 -3.1860230158518004 6.255238911010561 0.7484788410284935 -0.6532120276781539 0.5264871557809688 8.825152630750031" Properties=species:S:1:pos:R:3 unique_starting_index=90 config_type=initial n_minim_iter=3 stress="-0.0014410326227458886 0.0003181755132701858 0.0023922987007846635 0.0003181755132701858 -0.02685140591891974 0.005184996644409224 0.0023922987007846635 0.005184996644409224 -0.005979684183669657" pbc="T T T"
Si       5.89129575       1.25005522       6.18753441
Si       1.02110191       2.62337129       0.57133192
Si       5.53444239       5.56780856       1.86804802
Si       1.27165927       0.61585472       2.15515722
Si       4.45804628       3.42164019       8.16048655
Si      -1.92044558       4.77331343       7.54197532
Si       0.75664033       2.63291584       3.33956992
Si       2.41392094       4.89722144       7.38450318
Si      -1.98119847       7.04302453       7.02408413
Si       5.16223046       3.27802828       5.43582430
Si       1.36111316       4.64826326       1.91611683
Si       3.61828098       7.17966574       2.39514927
Si       4.42823187       7.15523111       0.20432664
Si       6.92905566       3.57643070       7.24044430
Si      -0.96299563       4.30790672       1.25580204
Si      -2.53157412       7.02873933       9.32616961
Si      -1.10741892       1.88022925       1.72767686
Si       4.56501212       5.63641263       7.96558248
Si       2.96172106       1.86627614       7.51675763
Si      -0.51178799       3.40921450       5.34053640
Si       0.85148493       5.60970903       5.70275113
Si       4.27699955       1.28071116       1.07411957
Si       5.98717589       4.12228770       3.51892933
Si       2.24361787       5.96609076       3.83320161
24
Lattice="8.34763915814382 1.0099501277893366 -0.3607204807358998 -3.2219815963813336 6.426284570126588 0.7858965782591565 -0.4617580837891637 0.6887293799239562 8.713198798713446" Properties=species:S:1:pos:R:3 unique_starting_index=90 config_type=initial n_minim_iter=4 stress="-0.007813264531632851 -0.004170255811445957 0.0038969503629100112 -0.004170255811445957 -0.023225897337851912 0.007090417756403121 0.0038969503629100112 0.007090417756403121 -0.009455366808219463" pbc="T T T"
Si       5.81629064       1.19433008       6.23087196
Si       1.00249306       2.65901474       0.60729664
Si       5.32102513       5.57699148       2.08756604
Si       1.29097932       0.63806548       2.19829496
Si       4.50660282       3.48991122       8.22700154
Si      -1.70408980       4.97698220       7.51232817
Si       0.76410065       2.73219500       3.32170394
Si       2.36728047       4.99659732       7.43156658
Si      -1.98315627       7.38799879       6.90270270
Si       5.02655740       3.36698178       5.58823698
Si       1.29826656       4.71110512       2.02274361
Si       3.43761688       7.28996909       2.61774053
Si       4.12428614       7.18014426       0.34411246
Si       6.85674875       3.63378751       7.32944057
Si      -1.00356492       4.43095646       1.27604571
Si      -2.38808683       7.39155015       9.29735770
Si      -1.10295784       1.97073367       1.77756092
Si       4.43185165       5.83319161       8.06140269
Si       3.01716795       1.93266348       7.50985763
Si      -0.42131837       3.58388677       5.33829205
Si       0.79130980       5.74864921       5.77783891
Si       4.13148785       1.20035016       1.20182584
Si       5.91633545       4.10111044       3.65650026
Si       2.16126295       6.07634610       3.90524537
24
Lattice="8.276885266731572 1.1520158809173389 -0.393595115549198 -3.11240559939734 6.492876044418357 0.7014524463088313 -0.47230725466024415 0.560857655052234 8.634292516382896" Properties=species:S:1:pos:R:3 unique_starting_index=90 config_type=initial n_minim_iter=5 stress="0.003005960284163353 -0.0002673553724926387 -0.0008819469542169733 -0.0002673553724926387 -0.008171369117474842 -0.0006266293724349303 -0.0008819469542169733 -0.0006266293724349303 -0.0022874893619877087" pbc="T T T"
Si       5.71664072       1.14949078       6.12422590
Si       1.06356932       2.72217455       0.54088342
Si       5.31668599       5.72666542       2.00499926
Si       1.29641907       0.63665596       2.19817187
Si       4.52486190       3.48169233       8.12051533
Si      -1.56428945       4.92621278       7.40565902
Si       0.79140826       2.75316595       3.22924397
Si       2.34180348       4.95919795       7.29649278
Si      -1.92691366       7.45952009       6.66104708
Si       4.95317873       3.44467349       5.53736707
Si       1.35750363       4.77575071       1.95461730
Si       3.49915514       7.45756917       2.51672674
Si       4.12268487       7.36073464       0.18097461
Si       6.82506666       3.69702405       7.17686575
Si      -0.93899215       4.49980124       1.18723997
Si      -2.27297909       7.40076980       9.13556509
Si      -1.09042818       1.98594969       1.79045730
Si       4.38079554       5.92396642       7.90651673
Si       2.99354368       1.86664671       7.40092940
Si      -0.35764810       3.58325137       5.25879273
Si       0.80331247       5.76165297       5.67761392
Si       4.06647458       1.22744801       1.19338604
Si       5.97121537       4.17337041       3.54508317
Si       2.20319872       6.14726137       3.76496094
24
Lattice="7.953633172548785 1.23999612831624 -0.22841029178305727 -2.9456812780373176 6.681330728623941 0.7449408109131223 -0.28416945881185146 0.688284391505772 8.645829791181013" Properties=species:S:1:pos:R:3 unique_starting_index=90 config_type=initial n_minim_iter=6 stress="-0.00020184219775538621 -8.733641861863022e-05 0.002530813435659936 -8.733641861863022e-05 0.0031221622704181028 0.0008973978440855747 0.002530813435659936 0.0008973978440855747 0.002382381684990579" pbc="T T T"
Si       5.56548625       1.24502986       6.20953678
Si       1.08950345       2.83359602       0.57116689
Si       5.15981571       5.97052861       2.21710931
Si       1.31596984       0.69384269       2.27020733
Si       4.56432706       3.72675859       8.29539065
Si      -1.25717373       5.17433319       7.48133363
Si       0.85232973       2.89692450       3.26609298
Si       2.36815186       5.15405705       7.42175410
Si      -1.71996792       7.82895386       6.65718815
Si       4.83303627       3.68535247       5.74234872
Si       1.38588328       4.94175407       2.06746773
Si       3.47114862       7.76782178       2.71864114
Si       3.95190350       7.61724100       0.32423801
Si       6.73513996       3.96240877       7.33367944
Si      -0.84960662       4.67475762       1.21825486
Si      -1.94768450       7.78104667       9.21996156
Si      -1.02490661       2.09318857       1.86150728
Si       4.34553814       6.27125307       8.08065916
Si       3.03399430       2.00602130       7.47097042
Si      -0.18897904       3.77954480       5.33085333
Si       0.87128925       6.00358283       5.81348642
Si       3.89810779       1.26854032       1.31727611
Si       5.90784980       4.34838485       3.71004260
Si       2.21387665       6.37707681       3.88285048
24
Lattice="7.770640165676994 1.2666849853778848 -0.27384435256769857 -2.879378533361447 6.815944529281081 0.8031686028937417 -0.3299279096298787 0.7484434415621866 8.550851594610673" Properties=species:S:1:pos:R:3 unique_starting_index=90 config_type=initial n_minim_iter=7 stress="-0.0018526545081676263 0.0001640485154704319 -0.0020057010359005784 0.0001640485154704319 0.008334123462030923 -0.0024298455241342732 -0.0020057010359005784 -0.0024298455241342732 0.00044867866710552386" pbc="T T T"
Si       5.32715576       1.23696686       6.04531908
Si       1.11169142       2.91446758       0.52877318
Si       4.99691903       6.10874274       2.22828506
Si       1.30418561       0.72010834       2.28185996
Si       4.43781142       3.85902467       8.24304260
Si      -1.19496084       5.34366499       7.45824457
Si       0.83967441       2.97922497       3.22533287
Si       2.21583922       5.20018868       7.35546294
Si      -1.74383255       8.08904340       6.55814174
Si       4.62434689       3.81091913       5.72659098
Si       1.36725589       5.03214200       2.08231344
Si       3.41407496       7.97035892       2.72822205
Si       3.80132597       7.77775169       0.31541889
Si       6.57045211       4.09607620       7.18114845
Si      -0.81619936       4.81814061       1.21545613
Si      -1.93773343       8.03388190       9.17247845
Si      -1.03864042       2.18207941       1.92659711
Si       4.15513062       6.45940640       7.99087536
Si       2.93418799       2.04155542       7.34054202
Si      -0.17101983       3.89960523       5.32089414
Si       0.76544933       6.14512352       5.81216249
Si       3.75153246       1.25529747       1.31387771
Si       5.83773219       4.40620798       3.64516226
Si       2.12077053       6.47600221       3.84131774
24
Lattice="7.698569684309801 1.2707386619020498 -0.19682858488526417 -2.84533503138937 6.86204024695393 0.8720143732401526 -0.2662651138775685 0.8717080179025597 8.52009135999616" Properties=species:S:1:pos:R:3 unique_starting_index=90 config_type=initial n_minim_iter=8 stress="0.0036836650143202893 0.0012874452765938378 0.001160640627014154 0.0012874452765938378 0.011877282880742286 -0.0031824613510757025 0.001160640627014154 -0.0031824613510757025 0.003430440044061201" pbc="T T T"
Si       5.24191987       1.27537308       6.00519410
Si       1.14921778       2.96687732       0.51569110
Si       4.92985576       6.18379969       2.36166744
Si       1.34525099       0.75713035       2.33190592
Si       4.46351019       4.02992939       8.36723147
Si      -1.08674765       5.52307960       7.50109533
Si       0.89358635       3.03580435       3.26479352
Si       2.20804895       5.22132251       7.42131521
Si      -1.68779762       8.27634641       6.57537831
Si       4.56351504       3.90762041       5.82991185
Si       1.39638948       5.06914776       2.16167151
Si       3.45315079       8.07275603       2.84464808
Si       3.71891689       7.83955176       0.45346213
Si       6.61580405       4.23614097       7.20513034
Si      -0.77410260       4.92282553       1.25821424
Si      -1.85285994       8.23829908       9.21191292
Si      -1.03975884       2.25846575       1.98373316
Si       4.15741419       6.59799305       8.06617569
Si       2.98806810       2.10830994       7.30999155
Si      -0.08443091       3.99547583       5.37697613
Si       0.74556211       6.27236314       5.90066116
Si       3.68052339       1.24016517       1.37371242
Si       5.88196539       4.43767585       3.73890770
Si       2.09816700       6.50351906       3.90867634
24
Lattice="7.666674023052211 1.2011129791087674 -0.3400081778412903 -2.8741913727801873 6.8407656121482985 1.0434327462308293 -0.42638062339167637 1.0251499106174815 8.612757238625866" Properties=species:S:1:pos:R:3 unique_starting_index=90 config_type=initial n_minim_iter=9 stress="0.003364218693452615 0.000571772761719713 -0.004390184259330984 0.000571772761719713 0.011768108776751562 0.0005740731245988619 -0.004390184259330984 0.0005740731245988619 0.012662763962855558" pbc="T T T"
Si       5.06037824       1.33807567       5.92817898
Si       1.13521035       2.96362724       0.49922104
Si       4.81773120       6.14582697       2.37040726
Si       1.31512485       0.78490721       2.34898366
Si       4.24991923       4.16722290       8.47054523
Si      -1.26605853       5.67391731       7.66783775
Si       0.84972928       3.04632247       3.35176334
Si       2.03753593       5.24018584       7.53022531
Si      -1.81142611       8.34253436       6.81451148
Si       4.40034666       3.91794037       5.84356185
Si       1.34416161       5.04999960       2.22206175
Si       3.39391751       8.02871869       2.89080857
Si       3.65004903       7.77382479       0.53926727
Si       6.48224611       4.29813957       7.16568894
Si      -0.79259880       4.96288409       1.37253924
Si      -2.06648960       8.34938338       9.43665816
Si      -1.08806407       2.29994852       2.04824369
Si       3.99028953       6.62457325       8.14228621
Si       2.86265883       2.18318078       7.30491364
Si      -0.17646506       4.04332348       5.49726761
Si       0.58385008       6.35822239       6.03792588
Si       3.61651643       1.21888829       1.32295700
Si       5.78141379       4.42521331       3.74092024
Si       1.96410874       6.46836881       3.99494764
24
Lattice="7.822845109843467 1.1572145513016547 -0.255553902899784 -2.949486042281291 6.758423508144965 0.9876361818455824 -0.3824764087956321 1.0030522062381486 8.354511576740318" Properties=species:S:1:pos:R:3 unique_starting_index=90 config_type=initial n_minim_iter=10 stress="0.0015771658682764004 0.0015683783386919725 0.002597286426607137 0.0015683783386919725 0.0007990892143101 -0.0006592987731114269 0.002597286426607137 -0.0006592987731114269 -0.0043718477459648054" pbc="T T T"
Si       5.17158641       1.31093808       5.78136832
Si       1.15215766       2.93376213       0.46545151
Si       4.89883541       6.04024077       2.33570662
Si       1.37235582       0.76781710       2.29621622
Si       4.34961256       4.12886929       8.31457047
Si      -1.30217866       5.63763429       7.42282454
Si       0.90942263       2.97430365       3.29953141
Si       2.12013903       5.11025498       7.33912444
Si      -1.80582750       8.21734324       6.63324996
Si       4.50970969       3.80473846       5.70043010
Si       1.38456966       4.97083753       2.16288171
Si       3.48733577       7.88964308       2.81631221
Si       3.69630072       7.66406131       0.59655614
Si       6.68575051       4.22094197       7.00184629
Si      -0.80758305       4.94493579       1.34345661
Si      -2.09825157       8.22150883       9.12577532
Si      -1.10657768       2.28299555       1.95846972
Si       4.13602821       6.47900769       7.94030843
Si       2.99591405       2.12224358       7.08945924
Si      -0.14011681       3.95967514       5.33890101
Si       0.59674822       6.30154351       5.86492531
Si       3.68541942       1.18612722       1.30409885
Si       5.89922196       4.34768059       3.71342326
Si       1.98693744       6.34907483       3.90180464
24
Lattice="7.902282809803301 1.05626178698598 -0.318706944807848 -3.047216045920726 6.667589684728338 0.9503022936398008 -0.4401648591080627 0.9316046364373948 8.412489858944852" Properties=species:S:1:pos:R:3 unique_starting_index=90 config_type=initial n_minim_iter=11 stress="0.001965674567746387 0.0012807140951043444 0.00024214237229960595 0.0012807140951043444 -0.005866966191567197 -0.0013691635469733033 0.00024214237229960595 -0.0013691635469733033 0.0016320997226535346" pbc="T T T"
Si       5.20913305       1.23516388       5.80430753
Si       1.10532655       2.85926523       0.44801171
Si       4.90290428       5.85467415       2.23857114
Si       1.36242763       0.72577524       2.27785530
Si       4.28760198       3.96613968       8.31168030
Si      -1.46572704       5.51283668       7.41883706
Si       0.87927951       2.86997438       3.31721930
Si       2.09372796       4.97536215       7.33140136
Si      -1.90726475       8.00608743       6.67301297
Si       4.52770716       3.62584206       5.64689972
Si       1.34108612       4.85779771       2.10654018
Si       3.43507919       7.67758460       2.74153142
Si       3.68851873       7.47729201       0.50870806
Si       6.67779083       4.03202032       6.99439115
Si      -0.87704465       4.86499296       1.33515300
Si      -2.26098368       8.01185075       9.13106535
Si      -1.13421996       2.23498934       1.92245856
Si       4.11268115       6.25579997       7.92093963
Si       2.98566464       2.02275329       7.11431775
Si      -0.21415286       3.84095335       5.32881990
Si       0.53543444       6.16753479       5.83105914
Si       3.72577016       1.13809846       1.25237320
Si       5.84984489       4.21216388       3.67862618
Si       1.93513944       6.21734092       3.87606173
24
Lattice="7.8684532294258664 0.8395852290415783 -0.37834641041212813 -3.208698756890517 6.799965738721375 1.0916522820484835 -0.5426588372384933 1.1131589928583712 8.311759396794153" Properties=species:S:1:pos:R:3 unique_starting_index=90 config_type=initial n_minim_iter=12 stress="-0.008314635742321911 -0.004827940672967519 -0.0005398519954699295 -0.004827940672967519 -0.009485872426640462 0.004812501907989849 -0.0005398519954699295 0.004812501907989849 -0.003063461267905245" pbc="T T T"
Si       5.09457235       1.23329396       5.69224077
Si       1.01905635       2.84569593       0.47103739
Si       4.75008958       5.75198168       2.23542286
Si       1.34181247       0.74098117       2.23933728
Si       4.08276117       4.05220301       8.26556596
Si      -1.70019080       5.75560100       7.41104907
Si       0.81344647       2.88293323       3.34281529
Si       1.91894021       5.04485318       7.28536102
Si      -2.13872164       8.20294756       6.74925947
Si       4.38229085       3.60754551       5.58155923
Si       1.22649825       4.85972585       2.12447784
Si       3.23330057       7.65517568       2.85098701
Si       3.47918851       7.37838326       0.53248788
Si       6.51067909       4.03181032       6.90163591
Si      -1.01801791       4.99172906       1.44265671
Si      -2.55139246       8.28777163       9.17395485
Si      -1.19987296       2.34062932       1.93945538
Si       3.87368197       6.35365996       7.89646027
Si       2.91867827       2.08542397       7.01027679
Si      -0.32531811       3.95572673       5.31282726
Si       0.31930801       6.32932154       5.85822423
Si       3.66411706       1.06048974       1.18682380
Si       5.66517008       4.15709031       3.65794119
Si       1.74628209       6.29920317       3.92101145
24
Lattice="7.877079517034166 0.9371413362414255 -0.38245547806158137 -3.1461735228345593 6.830609609168639 1.0697464226656197 -0.547871936995211 1.078616354887368 8.242058426421037" Properties=species:S:1:pos:R:3 unique_starting_index=90 config_type=initial n_minim_iter=13 stress="-0.0036753139671911 -0.0008352900880055881 -0.0010726499740784583 -0.0008352900880055881 -0.0026761067570402713 0.002275602618450648 -0.0010726499740784583 0.002275602618450648 -0.002578174334304162" pbc="T T T"
Si       5.07187505       1.27665302       5.63035712
Si       1.04472182       2.88089317       0.45467148
Si       4.79986518       5.83999642       2.19165586
Si       1.35960483       0.75755239       2.22296125
Si       4.09907312       4.11040057       8.21507456
Si      -1.66749017       5.77978599       7.33255757
Si       0.85642441       2.88272181       3.32242425
Si       1.95436610       5.05222997       7.20486197
Si      -2.06840746       8.22893595       6.66782594
Si       4.39808905       3.66171221       5.53447669
Si       1.28270425       4.89904539       2.08451131
Si       3.31696125       7.75084242       2.82376705
Si       3.53053518       7.47701364       0.48214096
Si       6.53698433       4.12988967       6.83309344
Si      -0.97584298       5.05788731       1.43070239
Si      -2.49767467       8.30871807       9.08410883
Si      -1.18430083       2.36014342       1.92511445
Si       3.90614185       6.44080249       7.82456243
Si       2.95682390       2.09716575       6.93991252
Si      -0.27529697       3.96349548       5.25440542
Si       0.35864817       6.38439672       5.80253633
Si       3.65769626       1.09556795       1.16362435
Si       5.68949139       4.24129396       3.62070598
Si       1.79142203       6.37287511       3.87253209
24
Lattice="7.860418824167425 0.9310625211043078 -0.3673124906807036 -3.1501148381179727 6.842015986748355 1.0283365240031173 -0.5233474512544455 1.0345975977439692 8.241403969211804" Properties=species:S:1:pos:R:3 unique_starting_index=90 config_type=initial n_minim_iter=14 stress="-0.0008512343627302055 -0.0004808727697378773 0.00040137931082755434 -0.0004808727697378773 -0.0004642158579379297 -0.00016033060730310885 0.00040137931082755434 -0.00016033060730310885 0.0004910725454767695" pbc="T T T"
Si       5.04501732       1.23607823       5.62198081
Si       1.04498790       2.88023619       0.43462630
Si       4.78016246       5.82229910       2.16871875
Si       1.38160478       0.75028657       2.23324399
Si       4.10627918       4.07830586       8.24566671
Si      -1.65455237       5.77240257       7.30045509
Si       0.88587720       2.84592989       3.32574138
Si       1.95976640       4.97856633       7.18010372
Si      -2.05521757       8.21335720       6.60872027
Si       4.38657430       3.62958943       5.54902141
Si       1.29537831       4.87732584       2.05728331
Si       3.32829399       7.74128703       2.80698118
Si       3.48957633       7.47697040       0.43423648
Si       6.54118561       4.10994928       6.82997340
Si      -0.97785693       5.09698786       1.41137371
Si      -2.48807111       8.28882647       9.04314604
Si      -1.18621442       2.37336419       1.92367698
Si       3.89433499       6.41869267       7.81587050
Si       3.00162302       2.04355094       6.93083539
Si      -0.24009313       3.94024589       5.23263387
Si       0.35007553       6.37447847       5.78524716
Si       3.63445976       1.07186450       1.16318047
Si       5.68545397       4.21144935       3.62228080
Si       1.77801567       6.36185207       3.84086303
24
Lattice="7.896093331313612 0.9415754687630878 -0.37803674553960775 -3.1614281381554554 6.877843656619947 1.030065796019565 -0.5447320635892124 1.0349683577024864 8.181814105454867" Properties=species:S:1:pos:R:3 unique_starting_index=90 config_type=initial n_minim_iter=15 stress="0.002771606462341818 0.0010910684164724231 5.990219359631479e-05 0.0010910684164724231 0.0027380742533291867 -0.0014914300473851557 5.990219359631479e-05 -0.0014914300473851557 0.00046667386079280446" pbc="T T T"
Si       5.02789962       1.25183979       5.55792487
Si       1.04833188       2.88871677       0.43490585
Si       4.79558348       5.84386466       2.13412488
Si       1.39883498       0.75889592       2.21621661
Si       4.09846016       4.10951438       8.20946012
Si      -1.69362515       5.82110353       7.24713433
Si       0.90875846       2.83669608       3.31905625
Si       1.95929638       4.97768917       7.10972114
Si      -2.06130997       8.24351123       6.56472912
Si       4.39250917       3.64443531       5.51265660
Si       1.31458613       4.88608442       2.03289709
Si       3.36438332       7.77452021       2.78799837
Si       3.49593818       7.51844639       0.42206200
Si       6.54619108       4.15355809       6.77285763
Si      -0.98087249       5.15422940       1.41468588
Si      -2.52658831       8.33420749       8.98416028
Si      -1.19528683       2.39622966       1.91720733
Si       3.88563528       6.46031026       7.76281025
Si       3.02990886       2.04445433       6.86983253
Si      -0.23100999       3.95590460       5.18547480
Si       0.33872625       6.41554500       5.74953205
Si       3.63823168       1.07088205       1.13832607
Si       5.69018635       4.23433967       3.59334698
Si       1.76950670       6.40512224       3.80696049
24
Lattice="7.867047147036641 0.9415844110232664 -0.37515894495418667 -3.15779510942038 6.94106775217494 1.062236282007604 -0.5480774761567596 1.0802204174006627 8.16237129659096" Properties=species:S:1:pos:R:3 unique_starting_index=90 config_type=initial n_minim_iter=16 stress="0.006185686298208339 0.0028251130750832857 0.0002012092625420141 0.0028251130750832857 0.005833176844251255 -0.002630336328433064 0.0002012092625420141 -0.002630336328433064 0.0035857428648840913" pbc="T T T"
Si       4.94145532       1.29586061       5.50518193
Si       1.04764858       2.88720613       0.46832438
Si       4.75521406       5.87350450       2.13047978
Si       1.42999897       0.78574221       2.22021158
Si       4.07171520       4.18657824       8.26540399
Si      -1.72120564       5.94075059       7.25048793
Si       0.95628058       2.82887452       3.35429759
Si       1.94491685       4.99332841       7.06218215
Si      -2.04232562       8.33194641       6.55886196
Si       4.36010656       3.70525773       5.55515347
Si       1.33965084       4.88886642       2.03909970
Si       3.40208679       7.82802805       2.81843557
Si       3.44411539       7.58733009       0.45119444
Si       6.47420744       4.26512095       6.77601280
Si      -0.97476597       5.25906631       1.44654856
Si      -2.55318323       8.47250276       8.99733369
Si      -1.19910763       2.44400134       1.95152788
Si       3.81596317       6.56879295       7.78758916
Si       3.07067555       2.06468314       6.84782374
Si      -0.19546846       4.01639873       5.16230826
Si       0.32420241       6.48776396       5.77627950
Si       3.60269635       1.05585148       1.12727653
Si       5.64972325       4.26717061       3.60387002
Si       1.72717441       6.49259095       3.79851037
24
Lattice="7.841526839703143 0.859872204555231 -0.3662756028167912 -3.2170562052241536 7.0182446893989345 1.1098429478406049 -0.5526076083623164 1.1561134949487792 8.13973165551459" Properties=species:S:1:pos:R:3 unique_starting_index=90 config_type=initial n_minim_iter=17 stress="0.006110234252767824 0.0016208323804437397 -0.0008200860421197458 0.0016208323804437397 0.006622820276805396 -0.0019807172617680568 -0.0008200860421197458 -0.0019807172617680568 0.0020465024254561516" pbc="T T T"
Si       4.88970347       1.32086697       5.46940021
Si       1.01868576       2.85989790       0.53240462
Si       4.67713502       5.85403259       2.14196583
Si       1.44206791       0.80071179       2.21553006
Si       4.03096142       4.22313920       8.29732124
Si      -1.80057028       6.06374143       7.27061384
Si       0.96645375       2.83313613       3.38716104
Si       1.90562831       5.04052269       7.01568729
Si      -2.08868861       8.43278893       6.58585672
Si       4.32557919       3.74686510       5.59615033
Si       1.31561786       4.88342605       2.06960126
Si       3.37219282       7.83389914       2.85104197
Si       3.35443446       7.61955516       0.52871981
Si       6.36018630       4.32037899       6.79858440
Si      -1.01055386       5.32220446       1.47892064
Si      -2.64316985       8.63457665       9.01965240
Si      -1.21476116       2.47754891       1.98550446
Si       3.70878196       6.63249989       7.81910967
Si       3.07084048       2.08517816       6.84544910
Si      -0.21839088       4.08971569       5.14214130
Si       0.28539308       6.52815397       5.80312182
Si       3.58932375       1.01916484       1.12396372
Si       5.57931451       4.25466218       3.61827182
Si       1.64141525       6.56213535       3.79853235
24
Lattice="7.722947408729557 0.8037886864701622 -0.30207347889712755 -3.2035462963547956 6.996834612931607 1.158613233745053 -0.47964691677362403 1.2466182744861858 8.228122417625906" Properties=species:S:1:pos:R:3 unique_starting_index=90 config_type=initial n_minim_iter=18 stress="-0.0022076720436619937 0.000402833805258255 -0.0009597366265000738 0.000402833805258255 -0.0020252259848177454 0.0008934259761296826 -0.0009597366265000738 0.0008934259761296826 -0.0001367372746762862" pbc="T T T"
Si       4.85342042       1.37483123       5.56068377
Si       0.99858237       2.80538528       0.61995240
Si       4.57959491       5.80194622       2.23451694
Si       1.44313680       0.81907763       2.25471330
Si       4.03801282       4.24720168       8.46137855
Si      -1.76464573       6.10919905       7.39634873
Si       0.98719208       2.84124090       3.46787262
Si       1.91610844       5.08045104       7.08907550
Si      -2.03379047       8.46023809       6.70535531
Si       4.29410678       3.80398005       5.75026070
Si       1.30277334       4.84628944       2.16374911
Si       3.34929742       7.77814775       2.95666224
Si       3.26385357       7.58296825       0.65528978
Si       6.24130867       4.37684094       6.97184240
Si      -0.99734208       5.28821688       1.51610985
Si      -2.58754173       8.70945275       9.15128536
Si      -1.18681506       2.46455403       2.04767523
Si       3.64138211       6.65320886       7.98916998
Si       3.06413279       2.12266690       6.97277257
Si      -0.20612041       4.13514091       5.20201830
Si       0.32570332       6.48363661       5.91589585
Si       3.56110627       0.99644368       1.17710265
Si       5.50255147       4.23353249       3.72473939
Si       1.59594546       6.56494703       3.86153363
24
Lattice="7.761930023183918 0.6012987500261734 -0.21033238765711748 -3.375057770154265 7.045956264365914 1.1244997818902143 -0.40075931034307755 1.2676170755736076 8.19434592476926" Properties=species:S:1:pos:R:3 unique_starting_index=90 config_type=initial n_minim_iter=19 stress="-0.0026626071491019708 -0.005999689942991038 0.002807044417577162 -0.005999689942991038 -0.0044749505412169386 0.001052187281564628 0.002807044417577162 0.001052187281564628 -0.004188468044354488" pbc="T T T"
Si       4.95171661       1.29530426       5.60895811
Si       0.94476335       2.76286281       0.64110663
Si       4.49636561       5.64373583       2.25843034
Si       1.45182719       0.78626863       2.26539106
Si       4.07891292       4.16544712       8.51322772
Si      -1.86493863       6.14554279       7.36497632
Si       0.99647372       2.80087325       3.49746677
Si       1.94160378       5.00427183       7.06924574
Si      -2.12906208       8.48634477       6.71121799
Si       4.29863643       3.70831159       5.76514788
Si       1.24109239       4.79575620       2.19796164
Si       3.28353072       7.65743136       2.99522139
Si       3.11516648       7.47081790       0.69306018
Si       6.28032687       4.24515699       7.03879019
Si      -1.08775912       5.28001856       1.48968530
Si      -2.69513838       8.73363370       9.05774552
Si      -1.21079351       2.46016344       2.03510073
Si       3.60890158       6.50570761       8.00718930
Si       3.11074879       2.03528566       6.99727857
Si      -0.26657040       4.11466692       5.17047491
Si       0.28246573       6.42735542       5.88941973
Si       3.60846804       0.90568984       1.20832370
Si       5.48488083       4.10088001       3.79454655
Si       1.49376467       6.49482931       3.83781195
24
Lattice="7.6895010168426055 0.6596558808986654 -0.16774369171904513 -3.2976069467926536 7.050618042396076 1.1752285341069657 -0.3570084010521076 1.3434545271144107 8.223996613998628" Properties=species:S:1:pos:R:3 unique_starting_index=90 config_type=initial n_minim_iter=20 stress="-0.002410686237590627 -0.002419618022664094 0.001432513774346295 -0.002419618022664094 -0.0038030020709129797 0.0021525266442575302 0.001432513774346295 0.0021525266442575302 -0.0033639496831198356" pbc="T T T"
Si       4.91667240       1.41367776       5.64623609
Si       0.96568495       2.77245062       0.67887346
Si       4.47089128       5.69073669       2.31299922
Si       1.45087411       0.82957208       2.29893386
Si       4.10974771       4.31114106       8.64826167
Si      -1.80156680       6.22730445       7.44236197
Si       1.05632268       2.83233887       3.56373692
Si       1.99808436       5.04656530       7.10063526
Si      -2.01731682       8.58180963       6.79602564
Si       4.25690007       3.85265525       5.85044172
Si       1.29192761       4.82021495       2.27466437
Si       3.37963584       7.73287765       3.10636580
Si       3.09608073       7.52790895       0.74759765
Si       6.25809057       4.42294367       7.13322831
Si      -1.01787782       5.31228093       1.51803178
Si      -2.59119807       8.83289941       9.11213504
Si      -1.17300450       2.46628893       2.09308519
Si       3.59031275       6.61637864       8.10879499
Si       3.11538356       2.09686016       7.05335321
Si      -0.23333580       4.16483511       5.20193296
Si       0.35472536       6.46594823       5.96202299
Si       3.59212876       0.92619729       1.23839775
Si       5.47919380       4.19186188       3.87128397
Si       1.50778719       6.56022445       3.86033934
24
Lattice="7.6118642269682875 0.6957957577808266 -0.13401196324330755 -3.2457851958774695 7.069616823701246 1.1541565991024074 -0.30573555849846085 1.3277715321430275 8.266025372727725" Properties=species:S:1:pos:R:3 unique_starting_index=90 config_type=initial n_minim_iter=21 stress="-0.002195374505281062 -0.00012644380442414232 0.0002994492987063413 -0.00012644380442414232 -4.85137778501895e-05 -7.993393151726154e-06 0.0002994492987063413 -7.993393151726154e-06 -0.00128119723761946" pbc="T T T"
Si       4.88716832       1.46130280       5.68747729
Si       0.96981840       2.77498101       0.68986580
Si       4.42895882       5.70287717       2.30497397
Si       1.44339832       0.84537563       2.32666688
Si       4.13837678       4.35280154       8.76946126
Si      -1.76091797       6.24580729       7.47317042
Si       1.11139664       2.82006529       3.61579773
Si       2.05349287       5.01440963       7.09703398
Si      -1.92402631       8.61460850       6.81485583
Si       4.20939219       3.92702220       5.91097396
Si       1.32527808       4.82122580       2.30073719
Si       3.44794951       7.77130026       3.14387234
Si       3.05169320       7.58195558       0.72374647
Si       6.22132544       4.50629104       7.20530713
Si      -0.96911684       5.34451409       1.49687033
Si      -2.51122599       8.85204551       9.10408874
Si      -1.14027558       2.45716182       2.12824604
Si       3.55625273       6.63715060       8.16794009
Si       3.12469682       2.07434146       7.11809948
Si      -0.21210483       4.16218689       5.20267508
Si       0.42029256       6.45112765       5.98185595
Si       3.57241741       0.92899508       1.25353653
Si       5.44690876       4.23432930       3.91243314
Si       1.50761455       6.60117494       3.83121971
