10
Lattice="5.586500248105376 -0.2676391054669789 -0.6759666271180084 0.3091500798088874 6.390869395440807 -1.9399869036053403 -0.4083249761276927 1.2178196626696944 5.671001140110153" Properties=species:S:1:pos:R:3 unique_starting_index=87 config_type=initial n_minim_iter=1 energy=-1628.3674727804073 free_energy=-1628.3674727804073 pbc="T T T"
Si       3.03455042       5.89759303       2.32703043
Si       1.27543206       2.36603720       2.78882611
Si       3.71846092       3.32911232      -0.06261776
Si       0.56000146       3.96970309      -0.13661383
Si       1.19443632       1.17244702       4.84505397
Si       1.76339009       1.94834816       0.49802522
Si       5.35995218       5.77225134       2.65427700
Si       2.46973822       5.39569747       0.08645006
Si       3.11009356       3.74420992       3.34719723
Si       5.04009382       3.55794652       1.94595256
