10
Lattice="5.253662824555102 0.0 0.0 0.0 5.800009183918148 0.0 0.0 0.0 11.119485258700255" Properties=species:S:1:pos:R:3 unique_starting_index=142 config_type=initial n_minim_iter=17 energy=-1624.9218551333513 free_energy=-1624.9218551333513 pbc="T T T"
Si       1.44583948       1.22125701       4.37548208
Si       3.80782335       4.57875217       4.37548208
Si       3.80782335       1.22125701       4.37548208
Si       1.44583948       4.57875217       4.37548208
Si       3.95218198       1.66818021       2.04673082
Si       1.30148084       4.13182897       2.04673082
Si       1.30148084       1.66818021       2.04673082
Si       3.95218198       4.13182897       2.04673082
Si       0.00000000       4.15073361       6.18663881
Si       0.00000000       1.64927557       6.18663881
