22
Lattice="8.340141006870462 7.34882650708986e-15 -7.181343245516807e-15 -4.1700705034352366 7.222773983094141 -1.7905628474074993e-14 1.0757803171900099e-14 3.7183562250199626e-14 12.49370658251397" Properties=species:S:1:pos:R:3 unique_starting_index=144 config_type=initial n_minim_iter=1 energy=-3570.0267973531772 free_energy=-3570.0267973531772 pbc="T T T"
Si       1.81246325       1.04533979      10.45740358
Si       6.52861856       1.04696932      10.45740358
Si       4.16912969       5.13046486      10.45740358
Si       2.35760725       6.17743419       4.21055029
Si      -2.35854806       6.17580465       4.21055029
Si       0.00094081       2.09230912       4.21055029
Si       1.20533524       4.12875095       4.92589264
Si      -0.00820033       6.20224945       4.92589264
Si      -1.19713492       4.11454756       4.92589264
Si       2.96473526       3.09402303      11.17274593
Si       4.17827083       1.02052453      11.17274593
Si       5.36720542       3.10822641      11.17274593
Si       4.16935502       4.95610035       4.84760611
Si       1.96335469       1.13271719       4.84760611
Si       6.37750180       1.13395644       4.84760611
Si       0.00071548       2.26667363      11.09445940
Si       2.20671581       6.09005679      11.09445940
Si      -2.20743130       6.08881754      11.09445940
Si       4.17007050       2.40759132       0.68108222
Si      -0.00000000       4.81518265       6.92793551
Si      -0.00000000      -0.00000000      11.68795391
Si      -0.00000000      -0.00000000       5.44110062
22
Lattice="7.735312036780479 7.617536646086103e-15 1.760310538831975e-14 -3.867656018390245 6.698976730051439 3.8906268181406427e-14 4.7260603932844855e-14 1.5548705236295215e-13 14.215797403940469" Properties=species:S:1:pos:R:3 unique_starting_index=144 config_type=initial n_minim_iter=2 stress="-0.0027734258438947344 -1.732431059470792e-17 7.299826537204203e-16 -1.732431059470792e-17 -0.002773425843894503 2.7872848186136855e-15 7.299826537204203e-16 2.7872848186136855e-15 -0.001774556417535669" pbc="T T T"
Si       1.68805429       0.97398616      11.69142431
Si       6.04778813       0.97490482      11.69142431
Si       3.86712563       4.75008574      11.69142431
Si       2.17960172       5.72499057       4.58352560
Si      -2.18013212       5.72407190       4.58352560
Si       0.00053039       1.94889098       4.58352560
Si       1.16478624       3.79518272       5.74280982
Si      -0.00146175       5.81011984       5.74280982
Si      -1.16332449       3.79265089       5.74280982
Si       2.70286978       2.90379401      12.85070852
Si       3.86911777       0.88885688      12.85070852
Si       5.03098051       2.90632583      12.85070852
Si       3.86754549       4.52081340       5.65096346
Si       1.88640003       1.08898594       5.65096346
Si       5.84902252       1.08917737       5.65096346
Si       0.00011052       2.17816332      12.75886216
Si       1.98125598       5.60999078      12.75886216
Si      -1.98136651       5.60979935      12.75886216
Si       3.86765602       2.23299224       0.52978079
Si      -0.00000000       4.46598448       7.63767949
Si      -0.00000000      -0.00000000      13.34695641
Si      -0.00000000      -0.00000000       6.23905771
22
Lattice="7.6848287196356395 6.932230333719282e-15 3.690367474517834e-14 -3.842414359817824 6.655256894936698 8.635154256221029e-14 7.519065391637533e-14 2.5057830800461655e-13 14.65746888311885" Properties=species:S:1:pos:R:3 unique_starting_index=144 config_type=initial n_minim_iter=3 stress="0.0037125273558320975 4.500135623400132e-17 1.282883326930723e-15 4.500135623400132e-17 0.0037125273558319457 4.683409874883581e-15 1.282883326930723e-15 4.683409874883581e-15 0.002149829729248506" pbc="T T T"
Si       1.67823543       0.96840288      12.01219286
Si       6.00704951       0.96919307      12.01219286
Si       3.84195814       4.71766093      12.01219286
Si       2.16417893       5.68685401       4.68345842
Si      -2.16463515       5.68606381       4.68345842
Si       0.00045622       1.93759595       4.68345842
Si       1.17278156       3.75999790       5.94766096
Si      -0.00023013       5.79091656       5.94766096
Si      -1.17255144       3.75959931       5.94766096
Si       2.66963280       2.89525898      13.27639540
Si       3.84264449       0.86434032      13.27639540
Si       5.01496579       2.89565758      13.27639540
Si       3.84240260       4.47212393       5.85547291
Si       1.89065448       1.09155630       5.85547291
Si       5.79418599       1.09157666       5.85547291
Si       0.00001175       2.18313296      13.18420735
Si       1.95175988       5.56370059      13.18420735
Si      -1.95177163       5.56368023      13.18420735
Si       3.84241436       2.21841896       0.49931305
Si      -0.00000000       4.43683793       7.82804750
Si      -0.00000000      -0.00000000      13.76988016
Si      -0.00000000      -0.00000000       6.44114571
22
Lattice="7.582170028770534 1.0378850018666993e-14 9.12147959032766e-14 -3.7910850143852723 6.566351860728254 1.9808401266552717e-13 1.5575698606193935e-13 4.879126658899176e-13 14.796224625241583" Properties=species:S:1:pos:R:3 unique_starting_index=144 config_type=initial n_minim_iter=4 stress="-0.006111032945320248 2.184924570245774e-17 3.0764463935598867e-15 2.184924570245774e-17 -0.0061110329453208274 1.0104087718084433e-14 3.0764463935598867e-15 1.0104087718084433e-14 -0.00012153194756293343" pbc="T T T"
Si       1.65639806       0.95584894      12.10581331
Si       5.92618153       0.95655833      12.10581331
Si       3.79067545       4.65394458      12.10581331
Si       2.13468695       5.61050291       4.70770100
Si      -2.13509652       5.60979353       4.70770100
Si       0.00040956       1.91240727       4.70770100
Si       1.16743583       3.70311482       6.01577993
Si       0.00037558       5.72582353       6.01577993
Si      -1.16781142       3.70376535       6.01577993
Si       2.62364918       2.86323703      13.41389224
Si       3.79070943       0.84052832      13.41389224
Si       4.95889643       2.86258650      13.41389224
Si       3.79111812       4.40155485       5.92576794
Si       1.87475264       1.08242717       5.92576794
Si       5.70738427       1.08236982       5.92576794
Si      -0.00003311       2.16479700      13.32388025
Si       1.91633237       5.48392468      13.32388025
Si      -1.91629926       5.48398203      13.32388025
Si       3.79108501       2.18878395       0.48117181
Si      -0.00000000       4.37756790       7.87928412
Si      -0.00000000      -0.00000000      13.90334549
Si      -0.00000000      -0.00000000       6.50523318
22
Lattice="7.51949606845555 7.84760085349845e-15 1.4834209578624432e-13 -3.759748034227781 6.51207461893971 3.249559227574186e-13 2.419666359093646e-13 7.586501868684261e-13 14.604633984887371" Properties=species:S:1:pos:R:3 unique_starting_index=144 config_type=initial n_minim_iter=5 stress="-0.0020337095981558012 -1.23564466473557e-16 5.447922222298126e-15 -1.23564466473557e-16 -0.002033709598155841 1.7270062127337678e-14 5.447922222298126e-15 1.7270062127337678e-14 -0.0023348895802916612" pbc="T T T"
Si       1.64377033       0.94878060      11.91204770
Si       5.87594280       0.94915656      11.91204770
Si       3.75953097       4.61413745      11.91204770
Si       2.11597770       5.56329401       4.60973071
Si      -2.11619477       5.56291805       4.60973071
Si       0.00021706       1.89793716       4.60973071
Si       1.21918804       3.63531179       5.94695212
Si       0.00188165       5.75026653       5.94695212
Si      -1.22106969       3.63857090       5.94695212
Si       2.54055999       2.87676282      13.24926912
Si       3.75786638       0.76180808      13.24926912
Si       4.98081772       2.87350371      13.24926912
Si       3.75984429       4.31686398       5.89007533
Si       1.90106005       1.09768867       5.89007533
Si       5.61833976       1.09752195       5.89007533
Si      -0.00009626       2.19521063      13.19239232
Si       1.85868798       5.41438594      13.19239232
Si      -1.85859173       5.41455266      13.19239232
Si       3.75974803       2.17069154       0.43411315
Si      -0.00000000       4.34138308       7.73643014
Si      -0.00000000      -0.00000000      13.72486243
Si      -0.00000000      -0.00000000       6.42254544
22
Lattice="7.487918940148907 1.08561543373359e-14 1.655993706526971e-13 -3.743959470074461 6.484728023647594 3.62961109502412e-13 2.6507388874867475e-13 8.307677571890906e-13 14.708043375552377" Properties=species:S:1:pos:R:3 unique_starting_index=144 config_type=initial n_minim_iter=6 stress="-0.0011722035007540258 -1.3631195840698194e-16 5.921286671222401e-15 -1.3631195840698194e-16 -0.001172203500754145 1.8619865460297394e-14 5.921286671222401e-15 1.8619865460297394e-14 0.0013942132780748774" pbc="T T T"
Si       1.63550286       0.94413535      12.00082144
Si       5.85252231       0.94431935      12.00082144
Si       3.74385323       4.59627332      12.00082144
Si       2.10845660       5.54059267       4.64679975
Si      -2.10856284       5.54040867       4.64679975
Si       0.00010623       1.88845470       4.64679975
Si       1.24221910       3.60374464       5.96910875
Si       0.00191551       5.75864900       5.96910875
Si      -1.24413461       3.60706240       5.96910875
Si       2.50174037       2.88098338      13.32313044
Si       3.74204396       0.72607902      13.32313044
Si       4.98809408       2.87766562      13.32313044
Si       3.74396794       4.27884877       5.94146175
Si       1.91034323       1.10294696       5.94146175
Si       5.57756723       1.10293229       5.94146175
Si      -0.00000847       2.20587925      13.29548343
Si       1.83361623       5.38178106      13.29548343
Si      -1.83360776       5.38179573      13.29548343
Si       3.74395947       2.16157600       0.45964756
Si      -0.00000000       4.32315201       7.81366925
Si      -0.00000000      -0.00000000      13.81710377
Si      -0.00000000      -0.00000000       6.46308208
22
Lattice="7.490326762279869 1.3650830584969425e-14 1.8256330310669464e-13 -3.7451633811399407 6.486813258780796 4.0031283464328254e-13 2.967621318693104e-13 9.295418863559908e-13 14.364687730804881" Properties=species:S:1:pos:R:3 unique_starting_index=144 config_type=initial n_minim_iter=7 stress="-0.00021311691520714245 -2.9068364658432425e-17 6.877832726652796e-15 -2.9068364658432425e-17 -0.0002131169152078347 2.1695416513346858e-14 6.877832726652796e-15 2.1695416513346858e-14 0.00032299477629918526" pbc="T T T"
Si       1.63303126       0.94288259      11.72542943
Si       5.85725085       0.94280526      11.72542943
Si       3.74520802       4.60112540      11.72542943
Si       2.11213212       5.54393066       4.54308557
Si      -2.11208748       5.54400799       4.54308557
Si      -0.00004465       1.88568785       4.54308557
Si       1.27041728       3.58895008       5.80898938
Si       0.00183280       5.79255185       5.80898938
Si      -1.27225008       3.59212458       5.80898938
Si       2.47474610       2.89786317      12.99133325
Si       3.74333058       0.69426140      12.99133325
Si       5.01741346       2.89468867      12.99133325
Si       3.74501541       4.25741425       5.81627565
Si       1.93079016       1.11457136       5.81627565
Si       5.55968457       1.11482764       5.81627565
Si       0.00014796       2.22939900      12.99861951
Si       1.81437322       5.37224189      12.99861951
Si      -1.81452119       5.37198561      12.99861951
Si       3.74516338       2.16227108       0.46298103
Si      -0.00000000       4.32454217       7.64532490
Si      -0.00000000      -0.00000000      13.48795884
Si      -0.00000000      -0.00000000       6.30561497
22
Lattice="7.487328609635042 7.359474588213454e-15 1.9937525661981743e-13 -3.743664304817524 6.4842167824259604 4.373311257639317e-13 3.2533843554430993e-13 1.018649826747684e-12 14.187039083195232" Properties=species:S:1:pos:R:3 unique_starting_index=144 config_type=initial n_minim_iter=8 stress="-0.0003009331139172356 -1.5478568706717846e-16 7.971695648001838e-15 -1.5478568706717846e-16 -0.0003009331139173594 2.5389747076621325e-14 7.971695648001838e-15 2.5389747076621325e-14 0.00021008503256324308" pbc="T T T"
Si       1.62695258       0.93952500      11.58036057
Si       5.86019980       0.93921976      11.58036057
Si       3.74384053       4.60547201      11.58036057
Si       2.11671173       5.54469178       4.48684103
Si      -2.11653550       5.54499702       4.48684103
Si      -0.00017623       1.87874476       4.48684103
Si       1.28550294       3.57872197       5.72294420
Si       0.00164869       5.80813399       5.72294420
Si      -1.28715163       3.58157759       5.72294420
Si       2.45816136       2.90549480      12.81646374
Si       3.74201561       0.67608278      12.81646374
Si       5.03081593       2.90263919      12.81646374
Si       3.74336934       4.24270092       5.75693222
Si       1.94135716       1.12050247       5.75693222
Si       5.54626642       1.12101337       5.75693222
Si       0.00029497       2.24151585      12.85045176
Si       1.80230715       5.36371430      12.85045176
Si      -1.80260212       5.36320340      12.85045176
Si       3.74366430       2.16140559       0.46766011
Si      -0.00000000       4.32281118       7.56117965
Si      -0.00000000      -0.00000000      13.31578358
Si      -0.00000000      -0.00000000       6.22226404
22
Lattice="7.4902116551823195 -3.392036410713661e-15 2.248285314452094e-13 -3.745105827591159 6.486713573110181 4.933751168712002e-13 3.737465015555234e-13 1.1695576190233846e-12 13.728628973238127" Properties=species:S:1:pos:R:3 unique_starting_index=144 config_type=initial n_minim_iter=9 stress="-0.0008577487551594215 -2.6307858535396286e-16 1.0321713537377253e-14 -2.6307858535396286e-16 -0.0008577487551592937 3.278553306157928e-14 1.0321713537377253e-14 3.278553306157928e-14 -0.0014592173737136415" pbc="T T T"
Si       1.60454485       0.92700300      11.19626260
Si       5.88513108       0.92607510      11.19626260
Si       3.74564155       4.63363546      11.19626260
Si       2.14056097       5.55971057       4.33194811
Si      -2.14002525       5.56063847       4.33194811
Si      -0.00053573       1.85307810       4.33194811
Si       1.31775616       3.56252520       5.50567756
Si       0.00099042       5.84666128       5.50567756
Si      -1.31874658       3.56424066       5.50567756
Si       2.42734967       2.92418836      12.36999205
Si       3.74411541       0.64005229      12.36999205
Si       5.06385240       2.92247291      12.36999205
Si       3.74440378       4.21880501       5.60970226
Si       1.96441745       1.13334629       5.60970226
Si       5.52649625       1.13456226       5.60970226
Si       0.00070204       2.26790856      12.47401674
Si       1.78068838       5.35336727      12.47401674
Si      -1.78139042       5.35215130      12.47401674
Si       3.74510583       2.16223785       0.47527938
Si      -0.00000000       4.32447571       7.33959386
Si      -0.00000000      -0.00000000      12.87321900
Si      -0.00000000      -0.00000000       6.00890451
22
Lattice="7.459768888862343 -2.4330347288637055e-14 2.7099665193191015e-13 -3.7298844444311525 6.460349364115628 5.950377821688617e-13 4.450888161150878e-13 1.3920970491881125e-12 13.583083585633288" Properties=species:S:1:pos:R:3 unique_starting_index=144 config_type=initial n_minim_iter=10 stress="0.0017105533638626935 -4.3652529223349446e-16 1.0664727712867678e-14 -4.3652529223349446e-16 0.0017105533638631279 3.349967504428881e-14 1.0664727712867678e-14 3.349967504428881e-14 0.001183892551654904" pbc="T T T"
Si       1.50561918       0.87082062      10.99479262
Si       5.95280651       0.86849415      10.99479262
Si       3.73122763       4.72103459      10.99479262
Si       2.22426526       5.58952874       4.20325083
Si      -2.22292207       5.59185521       4.20325083
Si      -0.00134319       1.73931477       4.20325083
Si       1.35989138       3.52209726       5.40077864
Si      -0.00028696       5.87700121       5.40077864
Si      -1.35960443       3.52160024       5.40077864
Si       2.36999306       2.93825209      12.19232043
Si       3.73017140       0.58334815      12.19232043
Si       5.08948887       2.93874911      12.19232043
Si       3.72847106       4.17274488       5.68148313
Si       1.98183028       1.14257821       5.68148313
Si       5.47935198       1.14502626       5.68148313
Si       0.00141338       2.28760448      12.47302492
Si       1.74805416       5.31777115      12.47302492
Si      -1.74946754       5.31532309      12.47302492
Si       3.72988444       2.15344978       0.46353305
Si      -0.00000000       4.30689957       7.25507484
Si      -0.00000000      -0.00000000      12.73759692
Si      -0.00000000      -0.00000000       5.94605513
22
Lattice="7.421738360354977 -3.4857733876695885e-14 3.0278234498188467e-13 -3.7108691801774607 6.427413960308908 6.650339961161439e-13 4.867204371942581e-13 1.5220134882158102e-12 13.708862546273878" Properties=species:S:1:pos:R:3 unique_starting_index=144 config_type=initial n_minim_iter=11 stress="0.0007991319052108619 -4.68698444048054e-16 1.0588138641025097e-14 -4.68698444048054e-16 0.0007991319052113835 3.306824283956356e-14 1.0588138641025097e-14 3.306824283956356e-14 0.0057163631796470875" pbc="T T T"
Si       1.45048193       0.83932333      11.04032308
Si       5.96962206       0.83649253      11.04032308
Si       3.71250354       4.75159809      11.04032308
Si       2.26038725       5.58809062       4.18589181
Si      -2.25875288       5.59092142       4.18589181
Si      -0.00163437       1.67581587       4.18589181
Si       1.36850526       3.49529947       5.44723736
Si      -0.00040159       5.86492454       5.44723736
Si      -1.36810367       3.49460390       5.44723736
Si       2.34236392       2.93211449      12.30166864
Si       3.71127076       0.56248941      12.30166864
Si       5.07897285       2.93281005      12.30166864
Si       3.70935977       4.14759234       5.79932492
Si       1.97513814       1.13860362       5.79932492
Si       5.44810963       1.14121799       5.79932492
Si       0.00150941       2.27982161      12.65375619
Si       1.73573104       5.28881034      12.65375619
Si      -1.73724045       5.28619596      12.65375619
Si       3.71086918       2.14247132       0.43358936
Si      -0.00000000       4.28494264       7.28802063
Si      -0.00000000      -0.00000000      12.87358841
Si      -0.00000000      -0.00000000       6.01915714
22
Lattice="7.416317262838539 -4.9231074237035806e-14 3.43319913712231e-13 -3.7081586314192245 6.422719152143273 7.542933885884535e-13 5.622862330679216e-13 1.7576508785626043e-12 13.257238052973465" Properties=species:S:1:pos:R:3 unique_starting_index=144 config_type=initial n_minim_iter=12 stress="0.001394319127576261 -5.028288073584011e-16 1.3655984435706762e-14 -5.028288073584011e-16 0.0013943191275756308 4.279579234734512e-14 1.3655984435706762e-14 4.279579234734512e-14 0.005488883807942055" pbc="T T T"
Si       1.37793149       0.79782818      10.59564048
Si       6.03641204       0.79440958      10.59564048
Si       3.71013236       4.83048138      10.59564048
Si       2.33022714       5.62489096       3.96702145
Si      -2.32825341       5.62830956       3.96702145
Si      -0.00197373       1.59223776       3.96702145
Si       1.39178885       3.47872845       5.27028195
Si      -0.00040301       5.88867943       5.27028195
Si      -1.39138585       3.47803042       5.27028195
Si       2.31636978       2.94399070      11.89890097
Si       3.70856164       0.53403972      11.89890097
Si       5.09954448       2.94468872      11.89890097
Si       3.70673546       4.14813351       5.69067276
Si       1.97056053       1.13606031       5.69067276
Si       5.44717990       1.13852532       5.69067276
Si       0.00142317       2.27458563      12.31929179
Si       1.73759810       5.28665883      12.31929179
Si      -1.73902127       5.28419383      12.31929179
Si       3.70815863       2.14090638       0.36374942
Si      -0.00000000       4.28181276       6.99236845
Si      -0.00000000      -0.00000000      12.49325137
Si      -0.00000000      -0.00000000       5.86463234
22
Lattice="7.427320813020629 -5.5538025468350725e-14 3.5215018235516815e-13 -3.7136604065102614 6.432248506132779 7.737339850438067e-13 6.05693179146967e-13 1.892868140715787e-12 12.457009502306587" Properties=species:S:1:pos:R:3 unique_starting_index=144 config_type=initial n_minim_iter=13 stress="-0.0012052377238277205 -5.579114800686333e-16 1.921297270474903e-14 -5.579114800686333e-16 -0.0012052377238288667 6.021268049592797e-14 1.921297270474903e-14 6.021268049592797e-14 -0.009093808760139118" pbc="T T T"
Si       1.33265902       0.77177524       9.90482489
Si       6.09261434       0.76822894       9.90482489
Si       3.71570786       4.89224432       9.90482489
Si       2.38100139       5.66047326       3.67632014
Si      -2.37895393       5.66401956       3.67632014
Si      -0.00204746       1.54000418       3.67632014
Si       1.42116078       3.46784385       4.95616067
Si      -0.00016086       5.92908792       4.95616067
Si      -1.42099993       3.46756523       4.95616067
Si       2.29249962       2.96440465      11.18466542
Si       3.71382126       0.50316058      11.18466542
Si       5.13466033       2.96468327      11.18466542
Si       3.71265967       4.16971811       5.38033527
Si       1.95990917       1.13039853       5.38033527
Si       5.46841238       1.13213186       5.38033527
Si       0.00100074       2.26253039      11.60884003
Si       1.75375124       5.30184997      11.60884003
Si      -1.75475198       5.30011664      11.60884003
Si       3.71366040       2.14408283       0.32007724
Si      -0.00000000       4.28816567       6.54858199
Si      -0.00000000      -0.00000000      11.80310309
Si      -0.00000000      -0.00000000       5.57459834
22
Lattice="7.4291214499517215 -4.1268676565417564e-14 3.5115033483493833e-13 -3.7145607249758203 6.433807903458086 7.715320568042348e-13 6.036736592291125e-13 1.886572097946027e-12 12.474689556208627" Properties=species:S:1:pos:R:3 unique_starting_index=144 config_type=initial n_minim_iter=14 stress="-0.006121963803223597 -6.357463489711641e-16 2.026363508572225e-14 -6.357463489711641e-16 -0.006121963803225457 6.379871898731433e-14 2.026363508572225e-14 6.379871898731433e-14 -0.009759367473076852" pbc="T T T"
Si       1.36780858       0.79143560       9.93970330
Si       6.05981382       0.78883917       9.93970330
Si       3.71605977       4.85353312       9.93970330
Si       2.34675215       5.64237229       3.70235852
Si      -2.34525310       5.64496873       3.70235852
Si      -0.00149905       1.58027477       3.70235852
Si       1.41155682       3.47332714       4.99022725
Si       0.00079277       5.91958840       4.99022725
Si      -1.41234960       3.47470026       4.99022725
Si       2.30300390       2.96048076      11.22757203
Si       3.71376795       0.51421950      11.22757203
Si       5.12691032       2.95910764      11.22757203
Si       3.71437048       4.20681079       5.31909535
Si       1.92873119       1.11333379       5.31909535
Si       5.50058050       1.11366330       5.31909535
Si       0.00019024       2.22699710      11.55644013
Si       1.78582953       5.32047410      11.55644013
Si      -1.78601978       5.32014459      11.55644013
Si       3.71456072       2.14460263       0.32770314
Si      -0.00000000       4.28920527       6.56504792
Si      -0.00000000      -0.00000000      11.87575289
Si      -0.00000000      -0.00000000       5.63840811
22
Lattice="7.403487436099483 -3.41627010910644e-14 3.4222566704035164e-13 -3.701743718049707 6.411608196261083 7.51886861617771e-13 6.001258910507329e-13 1.8754216806988987e-12 12.155771053406706" Properties=species:S:1:pos:R:3 unique_starting_index=144 config_type=initial n_minim_iter=15 stress="-0.01009136437821755 -1.0235754960285038e-15 1.919217649550142e-14 -1.0235754960285038e-15 -0.010091364378219619 6.051266315876967e-14 1.919217649550142e-14 6.051266315876967e-14 -0.009601065432977814" pbc="T T T"
Si       1.33029065       0.76960925       9.65458437
Si       6.07184094       0.76726086       9.65458437
Si       3.70309956       4.87473807       9.65458437
Si       2.37145307       5.64199893       3.57669885
Si      -2.37009723       5.64434733       3.57669885
Si      -0.00135585       1.53687012       3.57669885
Si       1.47357566       3.42218759       4.85046223
Si       0.00125449       5.97666835       4.85046223
Si      -1.47483015       3.42436044       4.85046223
Si       2.22816806       2.98942060      10.92834775
Si       3.70048922       0.43493984      10.92834775
Si       5.17657387       2.98724775      10.92834775
Si       3.70230034       4.21544596       5.17655885
Si       1.90165397       1.09856316       5.17655885
Si       5.50127684       1.09759906       5.17655885
Si      -0.00055662       2.19616223      11.25444438
Si       1.80008975       5.31304503      11.25444438
Si      -1.79953313       5.31400913      11.25444438
Si       3.70174372       2.13720273       0.35181854
Si      -0.00000000       4.27440546       6.42970406
Si      -0.00000000      -0.00000000      11.68890053
Si      -0.00000000      -0.00000000       5.61101501
22
Lattice="7.456826793550393 -2.1203931635625788e-14 3.3471360813462127e-13 -3.728413396775172 6.457801434835103 7.353344664585381e-13 5.876075463440083e-13 1.8364026315266457e-12 12.29675331472917" Properties=species:S:1:pos:R:3 unique_starting_index=144 config_type=initial n_minim_iter=16 stress="0.0031832567038776708 -8.993975399411926e-16 1.7563706660036153e-14 -8.993975399411926e-16 0.003183256703875895 5.5134305100847803e-14 1.7563706660036153e-14 5.5134305100847803e-14 0.002305368191451436" pbc="T T T"
Si       1.34621363       0.77857474       9.78799217
Si       6.10945447       0.77656783       9.78799217
Si       3.72957209       4.90265886       9.78799217
Si       2.38219977       5.67922669       3.63961551
Si      -2.38104108       5.68123360       3.63961551
Si      -0.00115869       1.55514257       3.63961551
Si       1.50356851       3.43600217       4.89507265
Si       0.00096397       6.04192887       4.89507265
Si      -1.50453248       3.43767182       4.89507265
Si       2.22484488       3.02179926      11.04344931
Si       3.72744942       0.41587256      11.04344931
Si       5.23294588       3.02012961      11.04344931
Si       3.72904851       4.26378131       5.20255442
Si       1.89975960       1.09756008       5.20255442
Si       5.55643207       1.09646003       5.20255442
Si      -0.00063511       2.19402012      11.35093107
Si       1.82865379       5.36024135      11.35093107
Si      -1.82801868       5.36134139      11.35093107
Si       3.72841340       2.15260047       0.39446642
Si      -0.00000000       4.30520095       6.54284308
Si      -0.00000000      -0.00000000      11.85865917
Si      -0.00000000      -0.00000000       5.71028251
22
Lattice="7.430204313978475 -2.2401833361399278e-14 3.3104292555032193e-13 -3.7151021569892135 6.4347456912140935 7.272580486033709e-13 5.827181899677567e-13 1.8211306088832e-12 12.226700509266236" Properties=species:S:1:pos:R:3 unique_starting_index=144 config_type=initial n_minim_iter=17 stress="-0.0015760940236391446 -9.978730719567727e-16 1.7183966838702767e-14 -9.978730719567727e-16 -0.0015760940236405547 5.4030605888508233e-14 1.7183966838702767e-14 5.4030605888508233e-14 0.0012526645434025726" pbc="T T T"
Si       1.32516722       0.76649042       9.70851397
Si       6.10382052       0.76438326       9.70851397
Si       3.71631872       4.90387200       9.70851397
Si       2.38993493       5.66825527       3.59516372
Si      -2.38871837       5.67036242       3.59516372
Si      -0.00121657       1.53087368       3.59516372
Si       1.51786825       3.41221126       4.87013180
Si       0.00110639       6.04315252       4.87013180
Si      -1.51897465       3.41412759       4.87013180
Si       2.19723390       3.02253442      10.98348206
Si       3.71399576       0.39159316      10.98348206
Si       5.23407680       3.02061810      10.98348206
Si       3.71567449       4.24687621       5.19163317
Si       1.89446438       1.09443039       5.19163317
Si       5.53516760       1.09343908       5.19163317
Si      -0.00057233       2.18786947      11.30498343
Si       1.82063777       5.34031530      11.30498343
Si      -1.82006545       5.34130660      11.30498343
Si       3.71510216       2.14491523       0.37859421
Si      -0.00000000       4.28983046       6.49194446
Si      -0.00000000      -0.00000000      11.81089157
Si      -0.00000000      -0.00000000       5.69754132
22
Lattice="7.442416665196916 -2.180278164920535e-14 3.243335639037888e-13 -3.7212083325984353 6.445321897609201 7.124822339276599e-13 5.756944392214054e-13 1.7992012879104284e-12 12.163175376720758" Properties=species:S:1:pos:R:3 unique_starting_index=144 config_type=initial n_minim_iter=18 stress="-0.000524776377965701 -1.2018939403338577e-15 1.6894410725725656e-14 -1.2018939403338577e-15 -0.0005247763779670162 5.315727643289184e-14 1.6894410725725656e-14 5.315727643289184e-14 -0.001333002880418653" pbc="T T T"
Si       1.32829278       0.76823668       9.65989824
Si       6.11295779       0.76621695       9.65989824
Si       3.72237442       4.91086826       9.65989824
Si       2.39291555       5.67708521       3.57831055
Si      -2.39174946       5.67910494       3.57831055
Si      -0.00116609       1.53445363       3.57831055
Si       1.52127889       3.41743449       4.84752840
Si       0.00098380       6.05407081       4.84752840
Si      -1.52226269       3.41913848       4.84752840
Si       2.19992944       3.02788740      10.92911609
Si       3.72022453       0.39125108      10.92911609
Si       5.24347102       3.02618341      10.92911609
Si       3.72164145       4.25774726       5.16103715
Si       1.89427865       1.09416241       5.16103715
Si       5.54770490       1.09341222       5.16103715
Si      -0.00043312       2.18757463      11.24262484
Si       1.82692968       5.35115948      11.24262484
Si      -1.82649657       5.35190967      11.24262484
Si       3.72120833       2.14844063       0.37458513
Si      -0.00000000       4.29688126       6.45617282
Si      -0.00000000      -0.00000000      11.74885853
Si      -0.00000000      -0.00000000       5.66727084
22
Lattice="7.455515697003244 -1.3643734688354852e-14 3.143207718725147e-13 -3.7277578485016067 6.45666599191846 6.904325197209183e-13 5.592669976388874e-13 1.7479679160686774e-12 12.231941483743494" Properties=species:S:1:pos:R:3 unique_starting_index=144 config_type=initial n_minim_iter=19 stress="-0.001524434959370138 -1.2891126281463943e-15 1.6754695927815546e-14 -1.2891126281463943e-15 -0.0015244349593711035 5.270659507508474e-14 1.6754695927815546e-14 5.270659507508474e-14 -0.0027318911700060663" pbc="T T T"
Si       1.34827936       0.77949049       9.72540280
Si       6.10631744       0.77789893       9.72540280
Si       3.72867674       4.89927656       9.72540280
Si       2.37947848       5.67717549       3.60943206
Si      -2.37855960       5.67876705       3.60943206
Si      -0.00091889       1.55738943       3.60943206
Si       1.54165070       3.41390723       4.89538466
Si       0.00040210       6.08482104       4.89538466
Si      -1.54205281       3.41460370       4.89538466
Si       2.18610714       3.04275875      11.01135540
Si       3.72735574       0.37184494      11.01135540
Si       5.26981066       3.04206229      11.01135540
Si       3.72687870       4.26515491       5.17987679
Si       1.89834384       1.09499417       5.17987679
Si       5.55805100       1.09651690       5.17987679
Si       0.00087915       2.19151108      11.29584753
Si       1.82941400       5.36167181      11.29584753
Si      -1.83029315       5.36014908      11.29584753
Si       3.72775785       2.15222199       0.34938806
Si      -0.00000000       4.30444399       6.46535880
Si      -0.00000000      -0.00000000      11.77959044
Si      -0.00000000      -0.00000000       5.66361970
22
Lattice="7.469642227446933 -3.719124143523888e-15 3.091991034308629e-13 -3.7348211137234597 6.468899926150025 6.791521625922824e-13 5.517128403354392e-13 1.7244064713125838e-12 12.256619679792182" Properties=species:S:1:pos:R:3 unique_starting_index=144 config_type=initial n_minim_iter=20 stress="0.00059492345802347 -1.3482752877273984e-15 1.576969791140823e-14 -1.3482752877273984e-15 0.0005949234580223182 4.9679366576274014e-14 1.576969791140823e-14 4.9679366576274014e-14 -0.0013997134453602237" pbc="T T T"
Si       1.34469799       0.77725461       9.73512336
Si       6.12417099       0.77591531       9.73512336
Si       3.73559436       4.91573000       9.73512336
Si       2.39012312       5.69164531       3.60681352
Si      -2.38934988       5.69298461       3.60681352
Si      -0.00077325       1.55316992       3.60681352
Si       1.56676080       3.40795207       4.91701688
Si       0.00006764       6.12177854       4.91701688
Si      -1.56682845       3.40806923       4.91701688
Si       2.16806031       3.06094785      11.04532672
Si       3.73475347       0.34712138      11.04532672
Si       5.30164956       3.06083069      11.04532672
Si       3.73325339       4.27906115       5.19786372
Si       1.89723987       1.09356170       5.19786372
Si       5.57397007       1.09627707       5.19786372
Si       0.00156772       2.18983877      11.32617356
Si       1.83758124       5.37533822      11.32617356
Si      -1.83914896       5.37262285      11.32617356
Si       3.73482111       2.15629997       0.32728440
Si      -0.00000000       4.31259995       6.45559423
Si      -0.00000000      -0.00000000      11.79799022
Si      -0.00000000      -0.00000000       5.66968038
22
Lattice="7.4714468735694535 8.074596279434486e-15 3.0526976387292573e-13 -3.7357234367847316 6.470462795536959 6.704998923531794e-13 5.448557860211191e-13 1.7030221727936233e-12 12.290227893923833" Properties=species:S:1:pos:R:3 unique_starting_index=144 config_type=initial n_minim_iter=21 stress="0.00030933283751239846 -1.472201992243139e-15 1.5132037578172266e-14 -1.472201992243139e-15 0.0003093328375107721 4.794917942001727e-14 1.5132037578172266e-14 4.794917942001727e-14 4.888961359115627e-05" pbc="T T T"
Si       1.33773241       0.77303838       9.75320222
Si       6.13310978       0.77199106       9.75320222
Si       3.73632811       4.92543334       9.75320222
Si       2.39799102       5.69742440       3.60808827
Si      -2.39738635       5.69847173       3.60808827
Si      -0.00060468       1.54502944       3.60808827
Si       1.58706526       3.39730802       4.93878813
Si       0.00003575       6.14624761       4.93878813
Si      -1.58710101       3.39736995       4.93878813
Si       2.14865818       3.07315477      11.08390207
Si       3.73568768       0.32421518      11.08390207
Si       5.32282445       3.07309284      11.08390207
Si       3.73392808       4.28393883       5.22085832
Si       1.89448297       1.09170716       5.22085832
Si       5.57875925       1.09481680       5.22085832
Si       0.00179535       2.18652396      11.36597226
Si       1.84124046       5.37875563      11.36597226
Si      -1.84303581       5.37564599      11.36597226
Si       3.73572344       2.15682093       0.31007652
Si      -0.00000000       4.31364186       6.45519047
Si      -0.00000000      -0.00000000      11.82320090
Si      -0.00000000      -0.00000000       5.67808696
