14
Lattice="5.720800903246463 0.6635085567014435 -7.354254316838984e-14 0.31515381541898085 2.6339306914056744 -1.529490252901562e-13 9.074184778081194e-14 8.373263157121227e-13 14.605931194672728" Properties=species:S:1:pos:R:3 unique_starting_index=0 config_type=initial n_minim_iter=9 energy=-2278.969787883869 free_energy=-2278.969787883869 pbc="T T T"
Si       1.84687357       1.78664402      11.62026230
Si       1.17110379      -0.13792439       4.31729670
Si       4.18908115       1.51079523       2.98566890
Si       4.86485093       3.43536364      10.28863449
Si       4.67832460       0.86214231       5.25169065
Si       4.06045366       1.45008587      12.55465625
Si       1.35763012       2.43529693       9.35424054
Si       1.97550106       1.84735338       2.05127494
Si       2.42236865       1.05857352       6.22968574
Si       0.59560871       0.59014611      13.53265133
Si       3.61358607       2.23886573       8.37624546
Si       5.44034601       2.70729314       1.07327986
Si       2.86040045       0.33175428      -0.00000000
Si       0.15757691       1.31696535       7.30296560
