16
Lattice="5.676147951968995 1.9958573097168453 1.3489490643623756 0.9401567086377516 8.629429283803415 1.5302089003686277 0.2999812462454013 -0.9171238212211672 8.672379301053452" Properties=species:S:1:pos:R:3 unique_starting_index=212 config_type=initial n_minim_iter=1 energy=-2602.6993767167814 free_energy=-2602.6993767167814 pbc="T T T"
Si       3.98896635       5.53959677       3.15878170
Si       2.92731956       4.16856601       8.39275556
Si       1.27379936       2.40833608       1.40165628
Si       5.64248655       7.29982669      10.14988098
Si       1.70955547       2.02087457       7.75114495
Si       5.20673044       7.68728820       3.80039231
Si       4.78471842       5.91847815       0.97648973
Si       2.13156749       3.78968462      10.57504754
Si       1.84677637       6.26847134       7.79725592
Si       5.06950954       3.43969143       3.75428134
Si       2.07877010       6.89598523      10.09126620
Si       4.83751581       2.81217754       1.46027107
Si       5.20081016       3.12943383       8.12054061
Si       1.71547574       6.57872894       3.43099665
Si       3.25399754       1.14307342       1.76764223
Si       3.66228836       8.56508935       9.78389503
16
Lattice="5.660065093552419 2.0074371491805914 1.3383348325503934 0.9586245886442271 8.62308315759855 1.5127171721941233 0.2744274185997147 -0.9420882065704952 8.737153659815059" Properties=species:S:1:pos:R:3 unique_starting_index=212 config_type=initial n_minim_iter=2 stress="-6.422277322578206e-05 0.0006413166261372921 -0.00041802847861896556 0.0006413166261372921 0.0006462335146727482 -0.0004541775328809937 -0.00041802847861896556 -0.0004541775328809937 0.002480866811212298" pbc="T T T"
Si       3.98442687       5.53909619       3.15561460
Si       2.90869023       4.14933591       8.43259107
Si       1.27306391       2.40646887       1.40444227
Si       5.62005319       7.28196323      10.18376339
Si       1.68871068       2.00261022       7.79650748
Si       5.20440642       7.68582188       3.79169818
Si       4.78348857       5.92714350       0.95430993
Si       2.10962853       3.76128860      10.63389573
Si       1.83995909       6.24766336       7.82991537
Si       5.05315801       3.44076874       3.75829029
Si       2.06787618       6.86838327      10.13659901
Si       4.82524092       2.82004883       1.45160666
Si       5.17341344       3.11814904       8.15390790
Si       1.71970366       6.57028306       3.43429777
Si       3.24170648       1.14798563       1.77019325
Si       3.65141062       8.54044647       9.81801242
16
Lattice="5.635533771053226 1.9980507582158291 1.3231977964526223 0.955776518096593 8.58177218869371 1.491509223331197 0.26398159514955644 -0.9510166222234624 8.69792853942364" Properties=species:S:1:pos:R:3 unique_starting_index=212 config_type=initial n_minim_iter=3 stress="-0.005927114081476745 0.00010651371000318498 -0.0003766266972105372 0.00010651371000318498 -0.004941908117618386 -0.0011690849596937968 -0.0003766266972105372 -0.0011690849596937968 -0.0011939562603828068" pbc="T T T"
Si       3.96769576       5.51198369       3.12931278
Si       2.88759613       4.11682263       8.38332278
Si       1.26540668       2.39350370       1.40444898
Si       5.58988521       7.23530262      10.10818658
Si       1.66730436       1.98727676       7.75712442
Si       5.18798753       7.64152957       3.75551114
Si       4.76116309       5.90215700       0.94207388
Si       2.09412880       3.72664932      10.57056168
Si       1.82706049       6.21049365       7.78350205
Si       5.02823140       3.41831268       3.72913351
Si       2.05622069       6.82223569      10.07170795
Si       4.79907119       2.80657064       1.44092761
Si       5.14788423       3.08973707       8.09626946
Si       1.70740766       6.53906926       3.41636610
Si       3.22541968       1.14625254       1.76221698
Si       3.62987220       8.48255379       9.75041858
16
Lattice="5.688298289227297 2.015084673930094 1.2978705459061122 0.9729433924641864 8.626651692881415 1.4698843129252732 0.24494880278152054 -0.9634710807914025 8.633766665533678" Properties=species:S:1:pos:R:3 unique_starting_index=212 config_type=initial n_minim_iter=4 stress="0.0020522329430586453 -0.002148568958664322 -6.931592476247333e-06 -0.002148568958664322 0.0031461296157558266 -0.0019418951247743134 -6.931592476247333e-06 -0.0019418951247743134 0.0007768860837451869" pbc="T T T"
Si       4.01013910       5.54915853       3.09551477
Si       2.89605139       4.12910676       8.30600675
Si       1.27128875       2.40524804       1.42810089
Si       5.63490173       7.27301725       9.97342064
Si       1.64321395       2.01034604       7.69937853
Si       5.26297653       7.66791925       3.70214300
Si       4.80096254       5.94514857       0.93882290
Si       2.10522795       3.73311671      10.46269863
Si       1.83801572       6.24812389       7.71800280
Si       5.06817477       3.43014139       3.68351873
Si       2.07989392       6.85039493       9.96868713
Si       4.82629657       2.82787036       1.43283439
Si       5.19447736       3.09300357       7.98643297
Si       1.71171312       6.58526172       3.41508856
Si       3.24900348       1.17161879       1.75925431
Si       3.65718700       8.50664650       9.64226722
16
Lattice="5.706138189317091 2.053728952319665 1.3058525421664322 1.030914605462875 8.609144639800789 1.5205555286073513 0.23668086602520916 -0.9032968524990481 8.608535027319302" Properties=species:S:1:pos:R:3 unique_starting_index=212 config_type=initial n_minim_iter=5 stress="0.0007082679605457987 0.001084563077702193 -0.00031936983080291205 0.001084563077702193 0.0004494021023660067 0.0013148135684985373 -0.00031936983080291205 0.0013148135684985373 0.00048141583854817503" pbc="T T T"
Si       4.04955596       5.57526564       3.12649296
Si       2.92417770       4.18431110       8.30845014
Si       1.28631464       2.41312127       1.45011422
Si       5.68741902       7.34645547       9.98482888
Si       1.64896108       2.06552722       7.69835708
Si       5.32477258       7.69404952       3.73658602
Si       4.84193936       5.96115546       0.97516071
Si       2.13179430       3.79842128      10.45978238
Si       1.88024335       6.28686803       7.73721146
Si       5.09349031       3.47270871       3.69773163
Si       2.12890440       6.90074263       9.98865022
Si       4.84482926       2.85883411       1.44629288
Si       5.21976700       3.16309043       7.97792142
Si       1.75396666       6.59648631       3.45702168
Si       3.25823205       1.20212794       1.76681541
Si       3.71550161       8.55744880       9.66812769
16
Lattice="5.713334448290107 2.029554248972604 1.3180495154266465 1.0546553525943176 8.47886733430941 1.4776143627153653 0.29302515377701804 -0.9164254745098417 8.487322934025599" Properties=species:S:1:pos:R:3 unique_starting_index=212 config_type=initial n_minim_iter=6 stress="-0.007574176097386386 -0.000701009979787702 0.0032830444449512986 -0.000701009979787702 -0.010069937867706266 0.0013626535438695363 0.0032830444449512986 0.0013626535438695363 0.0015231020155938905" pbc="T T T"
Si       4.06136540       5.49945805       3.13133320
Si       2.99964956       4.09253806       8.15165362
Si       1.28384931       2.37257883       1.48020194
Si       5.77716565       7.21941728       9.80278487
Si       1.66182183       2.02508509       7.62070771
Si       5.39919313       7.56691102       3.66227910
Si       4.84620350       5.87563774       0.95818150
Si       2.21481145       3.71635837      10.32480531
Si       1.94068796       6.18191789       7.58461044
Si       5.12032700       3.41007822       3.69837638
Si       2.22275881       6.77323404       9.85134257
Si       4.83825614       2.81876207       1.43164424
Si       5.27633719       3.09297429       7.84753280
Si       1.78467777       6.49902182       3.43545401
Si       3.27516325       1.18104335       1.78083826
Si       3.78585170       8.41095276       9.50214855
16
Lattice="5.749706409815735 2.070629096445388 1.2065473779765667 1.1403269032290677 8.44107532356471 1.3346655525858675 0.2220961883966749 -0.9858767070798864 8.151853935416586" Properties=species:S:1:pos:R:3 unique_starting_index=212 config_type=initial n_minim_iter=7 stress="-0.01070177066763919 0.0055472560625564145 0.0010985859582261363 0.0055472560625564145 -0.013027412337918962 -0.003255278596679685 0.0010985859582261363 -0.003255278596679685 -0.006437853404301282" pbc="T T T"
Si       4.09438248       5.50499861       2.98422837
Si       3.01774702       4.02082911       7.70883850
Si       1.28339346       2.35649578       1.46305867
Si       5.82873605       7.16933193       9.23000820
Si       1.57482375       1.98145294       7.32632073
Si       5.53730575       7.54437478       3.36674613
Si       4.90892098       5.88983503       0.81355633
Si       2.20320852       3.63599268       9.87951054
Si       1.96304494       6.12316505       7.16345673
Si       5.14908456       3.40266266       3.52961013
Si       2.25690146       6.68241078       9.39800835
Si       4.85522804       2.84341693       1.29505851
Si       5.27865578       3.05526356       7.40841140
Si       1.83347372       6.47056415       3.28465547
Si       3.29400610       1.18976727       1.70499602
Si       3.81812340       8.33606044       8.98807084
16
Lattice="5.7528533338029275 2.0645772202373216 1.0823506901528637 1.1167107907270861 8.43082547152553 1.271796816700442 0.11600114028072611 -0.9720280868075656 7.7841490755700535" Properties=species:S:1:pos:R:3 unique_starting_index=212 config_type=initial n_minim_iter=8 stress="-0.010688801171952471 0.003863862572250244 -0.0005724483124335771 0.003863862572250244 -0.01254221295316121 -0.002805663700774645 -0.0005724483124335771 -0.002805663700774645 -0.010301008563742244" pbc="T T T"
Si       4.03624913       5.51953215       2.88519410
Si       2.94931614       4.00384246       7.25310249
Si       1.23621509       2.34405786       1.48979583
Si       5.74935017       7.17931674       8.64850075
Si       1.39677135       2.01238048       7.03873584
Si       5.58879391       7.51099412       3.09956074
Si       4.88472314       5.87539766       0.70029715
Si       2.10084213       3.64797694       9.43799943
Si       1.87380399       6.14303804       6.75557806
Si       5.11176128       3.38033656       3.38271852
Si       2.16774948       6.69304548       8.98365054
Si       4.81781578       2.83032913       1.15464604
Si       5.20196081       3.04176848       6.92561813
Si       1.78360445       6.48160612       3.21267845
Si       3.29138809       1.18303467       1.62911808
Si       3.69417717       8.34033993       8.50917850
16
Lattice="5.764645937078081 2.0625611352026794 1.0227396664219823 1.0957379212356138 8.461097924302136 1.2429577195082009 0.07324850257357361 -0.962432098149592 7.5706015194501335" Properties=species:S:1:pos:R:3 unique_starting_index=212 config_type=initial n_minim_iter=9 stress="-0.006159059299973004 0.0019955174807827435 -0.0010679078819406528 0.0019955174807827435 -0.006556419238288293 -0.0016944197071762249 -0.0010679078819406528 -0.0016944197071762249 -0.015249352299894025" pbc="T T T"
Si       4.00882541       5.55150179       2.84323473
Si       2.92480695       4.00972517       6.99306418
Si       1.21250587       2.34507225       1.51463802
Si       5.72112649       7.21615471       8.32166089
Si       1.30941580       2.04169387       6.87660669
Si       5.62421657       7.51953309       2.95969222
Si       4.86532519       5.88830271       0.64768353
Si       2.06830717       3.67292425       9.18861537
Si       1.83649621       6.18225482       6.51469518
Si       5.09713615       3.37897214       3.32160373
Si       2.12680266       6.73687639       8.75295202
Si       4.80682971       2.82435057       1.08334688
Si       5.17443653       3.04723285       6.64854046
Si       1.75919583       6.51399411       3.18775845
Si       3.29850589       1.17794154       1.59157758
Si       3.63512647       8.38328542       8.24472132
16
Lattice="5.753451426914299 2.020380602783911 1.0180136351319082 0.9846904120256559 8.548265450982429 1.2982584109979531 0.04660444420693927 -0.9268890847544226 7.625931648833422" Properties=species:S:1:pos:R:3 unique_starting_index=212 config_type=initial n_minim_iter=10 stress="0.00718346896289162 -0.00395259443094195 -0.0008052304949251552 -0.00395259443094195 0.005951035917753542 0.001389705828057 -0.0008052304949251552 0.001389705828057 0.0022786897227696245" pbc="T T T"
Si       3.94104685       5.58693601       2.89631868
Si       2.84369944       4.05482096       7.04588501
Si       1.18861108       2.36065177       1.54852541
Si       5.59613520       7.28110520       8.39367828
Si       1.26386851       2.08359339       6.94133280
Si       5.52087778       7.55816358       3.00087089
Si       4.78777516       5.90117058       0.66083457
Si       1.99697112       3.74058639       9.28136913
Si       1.74084658       6.26085000       6.56219603
Si       5.04389970       3.38090696       3.38000767
Si       1.99064819       6.84930994       8.86208716
Si       4.79409809       2.79244703       1.08011654
Si       5.10634513       3.06637997       6.67635703
Si       1.67840116       6.57537700       3.26584667
Si       3.29077378       1.14981766       1.59440565
Si       3.49397250       8.49193931       8.34779805
16
Lattice="5.711951939825477 2.027215874272972 1.0118374961107621 0.9587753166269514 8.645173149597783 1.271720466709438 0.06685701010332944 -0.9478528898600059 7.518147389970953" Properties=species:S:1:pos:R:3 unique_starting_index=212 config_type=initial n_minim_iter=11 stress="0.008343562190102728 -0.0016649723091009749 -0.0003151515779210908 -0.0016649723091009749 0.01513248106120955 -0.00016238234056380684 -0.0003151515779210908 -0.00016238234056380684 0.002824210592585738" pbc="T T T"
Si       3.91899214       5.64883991       2.88702715
Si       2.81859213       4.07569622       6.91467820
Si       1.19895458       2.37323652       1.56533679
Si       5.53862969       7.35129961       8.23636857
Si       1.27428675       2.08531541       6.84692293
Si       5.46329752       7.63922072       2.95478242
Si       4.71361294       5.96609033       0.64655900
Si       2.02397133       3.75844581       9.15514636
Si       1.75207284       6.30822816       6.39823684
Si       4.98551143       3.41630797       3.40346852
Si       1.95938452       6.93149936       8.73909954
Si       4.77819975       2.79303677       1.06260581
Si       5.05567709       3.09451052       6.53331924
Si       1.68190717       6.63002561       3.26838611
Si       3.27330280       1.13539847       1.58049795
Si       3.46428147       8.58913766       8.22120740
16
Lattice="5.725659196212589 1.9836164338942224 1.0020558262348391 0.9264762916622785 8.551286141371325 1.2660863023381979 0.060475304636089904 -0.9417778771795573 7.505816531355735" Properties=species:S:1:pos:R:3 unique_starting_index=212 config_type=initial n_minim_iter=12 stress="0.010129444602902216 -0.0015450424213925415 -0.0018778744080090645 -0.0015450424213925415 0.008462814448201246 -0.00046095487507446907 -0.0018778744080090645 -0.00046095487507446907 0.0038370082016407348" pbc="T T T"
Si       3.92663979       5.57345724       2.88067453
Si       2.78597100       4.01966746       6.89328413
Si       1.21549593       2.33781201       1.56829657
Si       5.49711486       7.25531269       8.20566209
Si       1.28366011       2.04209607       6.82077128
Si       5.42895068       7.55102863       2.95318738
Si       4.69707556       5.89403254       0.63870795
Si       2.01553523       3.69909216       9.13525071
Si       1.74226663       6.21654307       6.35505204
Si       4.97034416       3.37658163       3.41890662
Si       1.90417768       6.85718342       8.71600371
Si       4.80843311       2.73594127       1.05795495
Si       5.03700280       3.05360133       6.49647883
Si       1.67560799       6.53952337       3.27747983
Si       3.28054490       1.10154353       1.56952195
Si       3.43206590       8.49158117       8.20443671
16
Lattice="5.655056782695911 1.9834003338734936 1.0528395265946495 0.9139967349982369 8.57277201642368 1.2938268508386441 0.1278038979762807 -0.9242528762459086 7.507514033478578" Properties=species:S:1:pos:R:3 unique_starting_index=212 config_type=initial n_minim_iter=13 stress="-0.0021020045755181403 0.0008760281053112827 0.0020778206197276943 0.0008760281053112827 0.003049693052346446 0.0005995978764639575 0.0020778206197276943 0.0005995978764639575 0.00513635267229324" pbc="T T T"
Si       3.91603849       5.58318550       2.92245405
Si       2.78081892       4.04873397       6.93172636
Si       1.23654124       2.33753083       1.58414232
Si       5.46031617       7.29438864       8.27003809
Si       1.35009248       2.04562035       6.81603542
Si       5.34676493       7.58629912       3.03814499
Si       4.62821240       5.91145536       0.69489065
Si       2.06864502       3.72046412       9.15928977
Si       1.78112145       6.22325480       6.37078325
Si       4.91573596       3.40866468       3.48339716
Si       1.91931619       6.89801542       8.73922671
Si       4.77754123       2.73390406       1.11495370
Si       5.00423701       3.08700419       6.54011977
Si       1.69262041       6.54491528       3.31406064
Si       3.24687505       1.09927334       1.59436209
Si       3.44998236       8.53264613       8.25981832
16
Lattice="5.674078731835406 1.9523640787471113 1.0181376432493223 0.8929410681716646 8.495367495376692 1.2722995537728627 0.09669300438631839 -0.9227548365240267 7.438439952787888" Properties=species:S:1:pos:R:3 unique_starting_index=212 config_type=initial n_minim_iter=14 stress="-0.0015367283932502648 0.00019044821938035914 -5.503188878155739e-05 0.00019044821938035914 -0.0048292485395326 0.0004401024331605429 -5.503188878155739e-05 0.0004401024331605429 -0.0017984507929218456" pbc="T T T"
Si       3.91953996       5.51992761       2.88422287
Si       2.74417285       4.00504913       6.84465428
Si       1.23900263       2.30809403       1.57947187
Si       5.42471018       7.21688271       8.14940528
Si       1.31780927       2.01317053       6.73769352
Si       5.34590354       7.51180621       2.99118363
Si       4.63459612       5.85428770       0.66456587
Si       2.02911669       3.67068904       9.06431128
Si       1.75291842       6.14869136       6.29057708
Si       4.91079438       3.37628538       3.43830007
Si       1.86682396       6.82355690       8.63829848
Si       4.79688885       2.70141983       1.09057867
Si       4.98599220       3.04865099       6.44654000
Si       1.67772061       6.47632575       3.28233715
Si       3.25345752       1.08203927       1.57232322
Si       3.41025528       8.44293746       8.15655393
16
Lattice="5.669826736618245 1.9381149238168882 0.9889503328192119 0.8595343021660297 8.519190182585122 1.2503956601503492 0.07092689575782311 -0.9368545600365553 7.388818045599478" Properties=species:S:1:pos:R:3 unique_starting_index=212 config_type=initial n_minim_iter=15 stress="-7.063680241046471e-05 0.0006117579347861348 -0.001324434798488418 0.0006117579347861348 -0.005317157716095378 -0.001998431676112275 -0.001324434798488418 -0.001998431676112275 -0.004983997233419707" pbc="T T T"
Si       3.91681340       5.50278672       2.84727792
Si       2.68347453       4.01766383       6.78088612
Si       1.24511833       2.29772581       1.57669706
Si       5.35516961       7.22272473       8.05146698
Si       1.27923803       1.98384783       6.64823053
Si       5.32104991       7.53660271       2.97993351
Si       4.64102986       5.86660957       0.63636757
Si       1.95925807       3.65384098       8.99179647
Si       1.70776290       6.12278556       6.24920461
Si       4.89252503       3.39766499       3.37895943
Si       1.79684483       6.80451104       8.53720716
Si       4.80344311       2.71593951       1.09095688
Si       4.94215757       3.04614468       6.39958260
Si       1.65813036       6.47430587       3.22858144
Si       3.24647175       1.08497146       1.56286438
Si       3.35381618       8.43547909       8.06529966
16
Lattice="5.6435518420753015 1.9413581440949244 0.9904567997414582 0.834368396798752 8.574186728270293 1.2790624024884751 0.0666383936413331 -0.9110062058489734 7.370256031335469" Properties=species:S:1:pos:R:3 unique_starting_index=212 config_type=initial n_minim_iter=16 stress="-0.0014749084489007658 -0.0007744603028245249 -0.0005026452272090337 -0.0007744603028245249 -0.002111048741665542 -0.0005259037991280128 -0.0005026452272090337 -0.0005259037991280128 -0.002767769973616691" pbc="T T T"
Si       3.88465189       5.54165547       2.87047828
Si       2.65990675       4.06288319       6.76929695
Si       1.23496899       2.31324735       1.59247028
Si       5.30958964       7.29129132       8.04730495
Si       1.25526035       2.01542623       6.64024111
Si       5.28929828       7.58911244       2.99953412
Si       4.61299232       5.89536953       0.64659651
Si       1.93156631       3.70916913       8.99317873
Si       1.67959306       6.17883534       6.24808341
Si       4.86496558       3.42570333       3.39169182
Si       1.76257465       6.87693894       8.54538499
Si       4.78198399       2.72759973       1.09439024
Si       4.90427064       3.08425350       6.39294159
Si       1.64028799       6.52028516       3.24683364
Si       3.23510372       1.08970914       1.56646341
Si       3.30945491       8.51482953       8.07331183
16
Lattice="5.6563700842251885 1.9583660475415583 1.0011272407348253 0.8471240162145991 8.610008122365949 1.3022289450509232 0.07724020339153244 -0.8892417979646717 7.353330927628702" Properties=species:S:1:pos:R:3 unique_starting_index=212 config_type=initial n_minim_iter=17 stress="3.951986160607258e-05 5.3971815229912855e-05 0.00047297702761085416 5.3971815229912855e-05 0.000885979988092303 0.00016901849924460814 0.00047297702761085416 0.00016901849924460814 0.0017093601653208606" pbc="T T T"
Si       3.90024877       5.58072962       2.89791267
Si       2.68048553       4.09840275       6.75877444
Si       1.24611002       2.32715867       1.61228433
Si       5.33462428       7.35197370       8.04440278
Si       1.25899048       2.03796215       6.63076228
Si       5.32174382       7.64117022       3.02592483
Si       4.63408518       5.92694870       0.66046608
Si       1.94664912       3.75218368       8.99622103
Si       1.69572964       6.21941711       6.24294689
Si       4.88500467       3.45971526       3.41374022
Si       1.78052621       6.93251358       8.55001779
Si       4.80020810       2.74661880       1.10666932
Si       4.91479875       3.12735759       6.39464324
Si       1.66593555       6.55177478       3.26204388
Si       3.25054905       1.10349853       1.57669848
Si       3.33018526       8.57563384       8.07998863
16
Lattice="5.662432215768054 1.9746761290700254 0.9817218844100187 0.8444834199971778 8.660799830770232 1.3247407010250083 0.05194550368660827 -0.8555317421608412 7.275392882983187" Properties=species:S:1:pos:R:3 unique_starting_index=212 config_type=initial n_minim_iter=18 stress="-0.0001913051697350255 -0.000339493847091296 0.00019190196150842533 -0.000339493847091296 0.002417393812762213 0.000424935492326324 0.00019190196150842533 0.000424935492326324 0.0012344069646380781" pbc="T T T"
Si       3.89818409       5.63991797       2.89966211
Si       2.66067705       4.14002624       6.68219336
Si       1.25478525       2.34803799       1.63135674
Si       5.30407589       7.43190623       7.95049873
Si       1.22083646       2.06822284       6.55811478
Si       5.33802468       7.71172137       3.02374069
Si       4.64880935       5.97119563       0.65649604
Si       1.91005179       3.80874859       8.92535943
Si       1.67065936       6.27654683       6.17892321
Si       4.88820178       3.50339739       3.40293226
Si       1.74488918       7.01672451       8.48248598
Si       4.81397196       2.76321971       1.09936948
Si       4.88017124       3.18574395       6.32633517
Si       1.67868990       6.59420027       3.25552030
Si       3.26220063       1.12539640       1.56506562
Si       3.29666051       8.65454782       8.01678985
16
Lattice="5.710000330325577 1.9942100407222039 0.9816525082692047 0.8918369547475922 8.629537836828082 1.3297747243858569 0.04886223028270203 -0.8438439877653793 7.267925511595732" Properties=species:S:1:pos:R:3 unique_starting_index=212 config_type=initial n_minim_iter=19 stress="0.0013727361858925102 0.0005034627840182495 0.0001663539839206597 0.0005034627840182495 -0.0004474916834552359 0.00042224236886475957 0.0001663539839206597 0.00042224236886475957 0.0006952195059497592" pbc="T T T"
Si       3.95738629       5.65292827       2.89280895
Si       2.69331323       4.12697562       6.68654380
Si       1.28310804       2.35337364       1.63554830
Si       5.36759147       7.42653025       7.94380445
Si       1.24123975       2.07051712       6.54250468
Si       5.40945977       7.70938677       3.03684806
Si       4.71116677       5.97725416       0.66629730
Si       1.93953274       3.80264973       8.91305544
Si       1.70180739       6.26601857       6.17712852
Si       4.94889212       3.51388532       3.40222422
Si       1.79161719       7.01205667       8.46785257
Si       4.85908233       2.76784722       1.11150018
Si       4.92112536       3.20346323       6.33046684
Si       1.72957415       6.57644066       3.24888591
Si       3.29339256       1.15009073       1.55997839
Si       3.35730695       8.62981316       8.01937436
16
Lattice="5.694810048135459 1.9982245126363538 0.9648004423698778 0.888613694786223 8.644912366795463 1.3165677816612904 0.02646103662848965 -0.8560426590727911 7.265785491348757" Properties=species:S:1:pos:R:3 unique_starting_index=212 config_type=initial n_minim_iter=20 stress="-0.0007973218516757427 -0.00043580191673814057 -0.000491146579557634 -0.00043580191673814057 8.186485492740549e-06 -0.00047634567375812696 -0.000491146579557634 -0.00047634567375812696 -0.0015829305772446227" pbc="T T T"
Si       3.94455918       5.66796285       2.86962678
Si       2.66532560       4.11913137       6.67752694
Si       1.27428915       2.35875735       1.62759720
Si       5.33559563       7.42833687       7.91955652
Si       1.22152425       2.06700793       6.53196447
Si       5.38836053       7.72008629       3.01518924
Si       4.70021550       5.98968610       0.64887741
Si       1.90966928       3.79740812       8.89827630
Si       1.67091809       6.26815968       6.16628459
Si       4.93896669       3.51893454       3.38086913
Si       1.76870368       7.01421496       8.44720868
Si       4.84118110       2.77287926       1.09994504
Si       4.89128612       3.20189310       6.31965969
Si       1.71859866       6.58520112       3.22749402
Si       3.28268560       1.15423979       1.54451544
Si       3.32719918       8.63285443       8.00263827
16
Lattice="5.723096140513094 2.02266081048762 0.9712136617444103 0.9294253733506256 8.647644518407327 1.324108554656773 0.031719296218348215 -0.8471268145605084 7.261375128004883" Properties=species:S:1:pos:R:3 unique_starting_index=212 config_type=initial n_minim_iter=21 stress="-0.0011931455924516694 -6.784123708697061e-05 0.0007506921186159277 -6.784123708697061e-05 7.032040292942091e-05 0.00013622274766562751 0.0007506921186159277 0.00013622274766562751 0.001646241085361333" pbc="T T T"
Si       3.99774200       5.70377619       2.88052859
Si       2.68649882       4.11940233       6.67616875
Si       1.29093301       2.36765465       1.64575724
Si       5.39330780       7.45552387       7.91094010
Si       1.23795853       2.07428916       6.52711004
Si       5.44628228       7.74888936       3.02958731
Si       4.74001013       6.00956213       0.65239259
Si       1.94423068       3.81361638       8.90430476
Si       1.68660196       6.26247242       6.15734955
Si       4.99763885       3.56070609       3.39934780
Si       1.81509883       7.02745363       8.44225899
Si       4.86914198       2.79572488       1.11443835
Si       4.91609110       3.23453025       6.33209261
Si       1.76814971       6.58864827       3.22460473
Si       3.30844558       1.17024562       1.54226461
Si       3.37579523       8.65293289       8.01443273
