16
Lattice="8.689811102228745 -1.6266784027595882 -0.48743331490676217 -5.371022597922242 7.02218027360449 0.48743339289794013 -2.8336338450921574 -1.9754729490916212 8.152577305015813" Properties=species:S:1:pos:R:3 unique_starting_index=82 config_type=initial n_minim_iter=1 energy=-2603.1330106179394 free_energy=-2603.1330106179394 pbc="T T T"
Si      -1.59716427       2.39538857       2.31053131
Si       0.49048950       5.72222826       2.34975531
Si      -5.30120011       5.56626385       6.63053667
Si       1.36089149       0.57588002       6.18232726
Si       0.30690962       3.15587770       3.28881791
Si      -1.08704550       4.76088413       1.02760306
Si      -5.12119768       3.52385343       7.60882323
Si       1.50742796       2.41743545       4.86017505
Si       4.34613904       3.61726628       0.11168650
Si      -2.24996599      -1.18817931       6.34438888
Si       4.97854269      -1.91600642       3.94425844
Si      -2.88236965       4.34509339       2.51181694
Si      -5.18485364       2.00884792       5.78424083
Si       3.81418825       2.55270115       4.32262984
Si       1.63037231       3.89597258       1.46423554
Si      -3.00103769       0.66557649       8.64263512
16
Lattice="8.653253661296686 -1.5984884615764456 -0.4823926686686871 -5.329374800519917 7.002265951016186 0.482392746779488 -2.827675414126843 -1.9848413518756818 8.107485648186474" Properties=species:S:1:pos:R:3 unique_starting_index=82 config_type=initial n_minim_iter=2 stress="-0.004314556604555901 2.4893318237625376e-06 0.0009562720579000962 2.4893318237625376e-06 -0.0043120407513411365 -0.000588205658595523 0.0009562720579000962 -0.000588205658595523 -0.004071437983202274" pbc="T T T"
Si      -1.58577349       2.38934914       2.29606743
Si       0.50858269       5.72153872       2.33853120
Si      -5.26432417       5.54831764       6.59100664
Si       1.35945795       0.57772887       6.15107765
Si       0.31750282       3.15662392       3.27029237
Si      -1.06871298       4.75375233       1.02102849
Si      -5.09073778       3.50355869       7.56523154
Si       1.51185220       2.42197620       4.83357497
Si       4.34455400       3.63075003       0.11202080
Si      -2.24555877      -1.19769563       6.30762604
Si       4.95558416      -1.90298664       3.92456724
Si      -2.85658894       4.33604104       2.49507961
Si      -5.15729194       1.99386583       5.75009445
Si       3.80855482       2.55989847       4.30022781
Si       1.63491675       3.89690945       1.45515531
Si      -2.98365387       0.65685484       8.59516694
16
Lattice="8.652530826380326 -1.53873280673736 -0.49813604627247277 -5.275715705173402 7.028571125849075 0.4981361256272692 -2.8645291106677853 -2.0214835749241185 8.07404514497141" Properties=species:S:1:pos:R:3 unique_starting_index=82 config_type=initial n_minim_iter=3 stress="7.90441557259115e-05 0.003122459879963809 -0.0005979175941698677 0.003122459879963809 0.003234731914380373 0.0003677809114306999 -0.0005979175941698677 0.0003677809114306999 -0.0019945592541568196" pbc="T T T"
Si      -1.58050629       2.40369756       2.28779080
Si       0.56039864       5.79070037       2.34244091
Si      -5.23988403       5.57500719       6.57388145
Si       1.35524726       0.59790717       6.13039541
Si       0.34274205       3.20184122       3.25734791
Si      -1.03212494       4.78912697       1.02461017
Si      -5.08484116       3.49850068       7.54343851
Si       1.53092916       2.47098394       4.81256471
Si       4.39232928       3.71271027       0.10970627
Si      -2.27741339      -1.23013768       6.27667056
Si       4.93812811      -1.88497425       3.89766076
Si      -2.82321222       4.36754684       2.48871607
Si      -5.15315600       1.98679056       5.73230173
Si       3.82558717       2.61326409       4.27922444
Si       1.66116233       3.94460799       1.44621116
Si      -2.98873117       0.65544667       8.56531502
16
Lattice="8.657690135928327 -1.5570850520196402 -0.4938514919615055 -5.294422336417664 7.024898888564225 0.4938515709979393 -2.8554200117926163 -2.011907868403141 8.088436494799113" Properties=species:S:1:pos:R:3 unique_starting_index=82 config_type=initial n_minim_iter=4 stress="-7.512626388452758e-05 0.0003118069804542929 0.0021984743584627536 0.0003118069804542929 0.00023999890585465878 -0.0013522878115707175 0.0021984743584627536 -0.0013522878115707175 0.000295531557783779" pbc="T T T"
Si      -1.59642698       2.40365822       2.28584839
Si       0.55163458       5.77556589       2.35611172
Si      -5.25860172       5.58117395       6.57699243
Si       1.35838930       0.58614229       6.15340418
Si       0.33523626       3.19944442       3.25595140
Si      -1.04183384       4.77175510       1.02986864
Si      -5.09765957       3.49822022       7.54709540
Si       1.53564198       2.46107143       4.82716114
Si       4.39587404       3.70011910       0.11429915
Si      -2.28020756      -1.23318694       6.28100489
Si       4.94455158      -1.90887204       3.91159159
Si      -2.82888510       4.37580420       2.48371245
Si      -5.15029512       2.00935546       5.73393070
Si       3.81764613       2.57864527       4.29266281
Si       1.64033811       3.91791365       1.44278673
Si      -2.97298709       0.67008708       8.58380678
16
Lattice="8.65782517169966 -1.5638590434729907 -0.5323192307951701 -5.3005291590866 7.021964280829505 0.5323193096912673 -2.885344879763625 -1.9868100661056578 8.087912354933508" Properties=species:S:1:pos:R:3 unique_starting_index=82 config_type=initial n_minim_iter=5 stress="-0.00028100944972419607 -0.0003813041058255085 -0.0007057079191389871 -0.0003813041058255085 -0.0006663712555095316 0.00043408293295838933 -0.0007057079191389871 0.00043408293295838933 -0.00022701443917536807" pbc="T T T"
Si      -1.60866529       2.40921293       2.29509047
Si       0.53748731       5.77285916       2.36836662
Si      -5.29008072       5.59581895       6.60520632
Si       1.33355786       0.59944307       6.14616313
Si       0.31841339       3.20305562       3.25842128
Si      -1.04838729       4.76914088       1.04572681
Si      -5.12947164       3.51783358       7.56853708
Si       1.51415286       2.46755286       4.82352337
Si       4.39279375       3.69413799       0.10670511
Si      -2.30611223      -1.21606803       6.28079636
Si       4.92763389      -1.90397198       3.88450162
Si      -2.84095237       4.38204195       2.50299985
Si      -5.17270755       2.02812181       5.75321920
Si       3.79655765       2.57994553       4.28085793
Si       1.62851053       3.91351751       1.44310343
Si      -3.00466044       0.69454983       8.59097370
16
Lattice="8.647650384364884 -1.512348983069832 -0.5742428871063083 -5.249966505734729 7.036114567981465 0.5742429669515164 -2.9377484375642617 -1.9998280077377475 8.047927283918968" Properties=species:S:1:pos:R:3 unique_starting_index=82 config_type=initial n_minim_iter=6 stress="0.0017884703925746886 -0.0009756044365211316 -0.0009272412579890217 -0.0009756044365211316 0.0008024839560335088 0.0005703486996009497 -0.0009272412579890217 0.0005703486996009497 0.002151344789848646" pbc="T T T"
Si      -1.60584416       2.45112612       2.27629675
Si       0.57250603       5.79817361       2.38984357
Si      -5.30694323       5.60779418       6.58738188
Si       1.33585666       0.64167754       6.12668572
Si       0.30955776       3.22207282       3.22984205
Si      -0.99147076       4.81106431       1.06622587
Si      -5.13116535       3.55055682       7.54092714
Si       1.51150392       2.48275231       4.80306806
Si       4.43396985       3.78388668       0.10442928
Si      -2.36865716      -1.24742117       6.25293654
Si       4.87520090      -1.89629349       3.84127142
Si      -2.80988821       4.43275900       2.51609440
Si      -5.19214658       2.02635320       5.73529713
Si       3.80624153       2.63296607       4.25641443
Si       1.64243626       3.96392888       1.42421207
Si      -3.02834131       0.69539040       8.56749949
16
Lattice="8.591550017513605 -1.4026620142628692 -0.6142357494677164 -5.126766988364147 7.035513668289547 0.6142358308897481 -2.9954516526467443 -2.0395140683569233 7.938962762681812" Properties=species:S:1:pos:R:3 unique_starting_index=82 config_type=initial n_minim_iter=7 stress="-0.0002619179817768498 0.0010941669363112119 -0.0002331012480226897 0.0010941669363112119 0.0008438926089755373 0.00014338127511947992 -0.0002331012480226897 0.00014338127511947992 -0.0009945791060079832" pbc="T T T"
Si      -1.60251471       2.50726358       2.21829070
Si       0.66030436       5.83634215       2.42254598
Si      -5.28924767       5.61390365       6.49489001
Si       1.35158566       0.69018800       6.08490944
Si       0.32568971       3.24736253       3.16945154
Si      -0.88890434       4.86312186       1.07227921
Si      -5.08016353       3.55915242       7.44605081
Si       1.52149724       2.51181790       4.73464271
Si       4.50335750       3.95544129       0.10361876
Si      -2.45701913      -1.33212514       6.17465818
Si       4.76357685      -1.89150942       3.76598220
Si      -2.71723849       4.51482556       2.51229474
Si      -5.17849072       2.00629585       5.65576900
Si       3.82472690       2.70843275       4.20302585
Si       1.66729818       4.03547331       1.37916977
Si      -3.02106200       0.67925528       8.47962508
16
Lattice="8.508287941540448 -1.2904979548277888 -0.6846824482633577 -4.989106452767381 7.011787600696781 0.6846825309637485 -3.070337239549278 -2.0544010488023634 7.802410158960754" Properties=species:S:1:pos:R:3 unique_starting_index=82 config_type=initial n_minim_iter=8 stress="-0.000523701424895356 0.004863094809525006 -0.0016693711100979197 0.004863094809525006 0.00439114432970313 0.00102683506844206 -0.0016693711100979197 0.00102683506844206 -0.003942091823602294" pbc="T T T"
Si      -1.64240863       2.60282049       2.11640563
Si       0.76152800       5.82495979       2.51713200
Si      -5.33393988       5.63132523       6.35995199
Si       1.38272201       0.74205399       6.07599581
Si       0.33435251       3.24001449       3.08491640
Si      -0.76098824       4.90835847       1.07027326
Si      -5.01111156       3.57964720       7.32846272
Si       1.51413859       2.51432471       4.62913711
Si       4.57776919       4.20800253       0.09250352
Si      -2.60758849      -1.47689227       6.10784534
Si       4.54704595      -1.93475410       3.65136731
Si      -2.57686525       4.66586436       2.54898155
Si      -5.18253901       1.99050312       5.54726974
Si       3.84194115       2.77707637       4.13953372
Si       1.67537943       4.10973467       1.30372346
Si      -3.01597729       0.65784482       8.38308000
16
Lattice="8.457963497800714 -1.2793439711705512 -0.7175577937049106 -4.956454543289382 6.971902593189115 0.7175578759899999 -3.0848444922226506 -2.0256768708836868 7.7504273680602225" Properties=species:S:1:pos:R:3 unique_starting_index=82 config_type=initial n_minim_iter=9 stress="0.0002026875290310212 0.005382552445965102 -0.0035747122113798185 0.005382552445965102 0.005642518706925652 0.0021988158079335224 -0.0035747122113798185 0.0021988158079335224 -0.004022679572052782" pbc="T T T"
Si      -1.69106707       2.65453083       2.05090120
Si       0.78327863       5.75019906       2.59236174
Si      -5.40180169       5.63148610       6.28489383
Si       1.40916876       0.74756692       6.10879648
Si       0.32606659       3.19466884       3.04291029
Si      -0.71904080       4.89339738       1.05822145
Si      -4.97414064       3.58754791       7.27690288
Si       1.49632193       2.47484143       4.57465622
Si       4.57744887       4.31072458       0.08108937
Si      -2.68084652      -1.55415679       6.11087195
Si       4.40513166      -1.98958868       3.59752409
Si      -2.50852932       4.74615647       2.59443723
Si      -5.19597871       1.98487082       5.49429267
Si       3.84189398       2.77120376       4.12084320
Si       1.65643636       4.11548499       1.26030011
Si      -3.01052109       0.64058959       8.35483576
16
Lattice="8.451352667195955 -1.3532425484173263 -0.6922337480938141 -5.019428926525034 6.932673397764669 0.692233828743658 -3.031661168950262 -1.9804251668539679 7.786062007031407" Properties=species:S:1:pos:R:3 unique_starting_index=82 config_type=initial n_minim_iter=10 stress="0.00028682047404482794 0.0010026528588736921 0.0018709509917098153 0.0010026528588736921 0.0013001432013877484 -0.0011508272361204252 0.0018709509917098153 -0.0011508272361204252 0.00014874442391187053" pbc="T T T"
Si      -1.72749076       2.64314438       2.03596018
Si       0.73911234       5.65522680       2.61889147
Si      -5.44775460       5.61557771       6.27510811
Si       1.42771501       0.70236830       6.16580555
Si       0.31626178       3.13890371       3.05221185
Si      -0.76700002       4.82876349       1.03647144
Si      -4.96847936       3.56789681       7.29135974
Si       1.48607994       2.41934521       4.58338556
Si       4.51124819       4.23987495       0.07607011
Si      -2.64498682      -1.54260926       6.16620457
Si       4.39221030      -2.02600069       3.62298417
Si      -2.52594893       4.72326638       2.61929050
Si      -5.20119723       1.98301781       5.49884356
Si       3.83336853       2.70354581       4.14912800
Si       1.62583953       4.06140320       1.25969571
Si      -2.99366824       0.62516042       8.38827585
16
Lattice="8.440350412182584 -1.3815740886738122 -0.7631165823912888 -5.039753268669586 6.910075897694105 0.7631166623049616 -3.0765230654916347 -1.91773142746874 7.783824314618297" Properties=species:S:1:pos:R:3 unique_starting_index=82 config_type=initial n_minim_iter=11 stress="-0.0016583289563046049 -0.001384743801002033 -0.0017891666646055694 -0.001384743801002033 -0.0030578086734026552 0.001100521451871304 -0.0017891666646055694 0.001100521451871304 -0.0012643042220269103" pbc="T T T"
Si      -1.75765235       2.63580669       2.05744192
Si       0.69913421       5.63550952       2.63828234
Si      -5.50306512       5.64039049       6.33091242
Si       1.36802392       0.71319429       6.14863616
Si       0.28889903       3.15100338       3.04542464
Si      -0.79320328       4.77941430       1.06667812
Si      -5.03987580       3.58144515       7.31889510
Si       1.45904849       2.43124111       4.57703198
Si       4.46767417       4.20621001       0.04659487
Si      -2.67102978      -1.50122177       6.18652191
Si       4.34334598      -2.00567478       3.55694867
Si      -2.54670159       4.71066302       2.67616811
Si      -5.24767587       1.99458269       5.54287503
Si       3.78846823       2.71308931       4.11885531
Si       1.61148520       4.05215779       1.26940460
Si      -3.07069284       0.65551421       8.39232574
16
Lattice="8.454023644312553 -1.3905156821157794 -0.7744323884004923 -5.053900562331669 6.918246788248533 0.7744324683030253 -3.087374437707913 -1.9105255681168636 7.798833649974141" Properties=species:S:1:pos:R:3 unique_starting_index=82 config_type=initial n_minim_iter=12 stress="0.00011142150083064866 -0.0014453605656648998 0.0016752549617260692 -0.0014453605656648998 -0.0013493199266972381 -0.0010304541315839394 0.0016752549617260692 -0.0010304541315839394 0.0014290591668075306" pbc="T T T"
Si      -1.75281130       2.61237144       2.08641234
Si       0.68477190       5.66373902       2.61883918
Si      -5.49270171       5.65394228       6.37304541
Si       1.33728788       0.71164261       6.13103977
Si       0.28984398       3.18194034       3.05306838
Si      -0.81563616       4.76063233       1.08116329
Si      -5.07979783       3.57395195       7.33970141
Si       1.46663121       2.45809515       4.59336391
Si       4.45121160       4.16911859       0.03426507
Si      -2.65034440      -1.46725897       6.19748777
Si       4.36996291      -1.97589164       3.54646564
Si      -2.56909570       4.67775125       2.68528720
Si      -5.26033246       1.99330093       5.57554276
Si       3.77759346       2.72831413       4.11405050
Si       1.61918327       4.05595840       1.28890977
Si      -3.10192227       0.66565666       8.40068350
16
Lattice="8.437032689876531 -1.3530125815584804 -0.8445521397853311 -5.0127652443937025 6.919996251774807 0.8445522202552541 -3.1556728188152765 -1.8955669548570673 7.757318283592683" Properties=species:S:1:pos:R:3 unique_starting_index=82 config_type=initial n_minim_iter=13 stress="-0.001414903287134756 -0.0009848054361707044 -6.999010338703235e-07 -0.0009848054361707044 -0.0024101886064607438 4.304792153205082e-07 -6.999010338703235e-07 4.304792153205082e-07 -0.0008093257270578537" pbc="T T T"
Si      -1.75991915       2.62063803       2.09469627
Si       0.69920570       5.70507004       2.62826609
Si      -5.50479486       5.68453819       6.39563153
Si       1.28840860       0.74560293       6.08464911
Si       0.28901060       3.23805468       3.02634316
Si      -0.79645280       4.74733469       1.11399035
Si      -5.13176619       3.57736802       7.32727838
Si       1.46865117       2.51245439       4.57037341
Si       4.45494700       4.22155975       0.00324765
Si      -2.69490332      -1.46753755       6.18348261
Si       4.30634253      -1.93739355       3.45963066
Si      -2.54629885       4.69141575       2.72709961
Si      -5.29448733       1.99083900       5.58814023
Si       3.75784456       2.79098433       4.07020476
Si       1.63163016       4.09882489       1.28720505
Si      -3.16827292       0.68299845       8.37113994
16
Lattice="8.470294696941345 -1.3162795396392681 -0.9116465567279612 -4.994981741026193 6.9662501632810585 0.9116466383974495 -3.2388463297576 -1.9015992882302408 7.75908358784192" Properties=species:S:1:pos:R:3 unique_starting_index=82 config_type=initial n_minim_iter=14 stress="0.002700321666043851 -0.0003205560953357644 2.376354941795567e-06 -0.0003205560953357644 0.002376354348334727 -1.4617130561835201e-06 2.376354941795567e-06 -1.4617130561835201e-06 0.0028981045903062183" pbc="T T T"
Si      -1.73637862       2.62833348       2.13568941
Si       0.70712208       5.79241056       2.60790096
Si      -5.50821846       5.72166136       6.47105453
Si       1.24011559       0.79748339       6.03161943
Si       0.29379133       3.33414764       3.03934629
Si      -0.80488160       4.76787086       1.15858295
Si      -5.22254714       3.59136663       7.37471137
Si       1.47261053       2.60905258       4.58230146
Si       4.47383320       4.23941192      -0.02687478
Si      -2.71405469      -1.42803402       6.18181682
Si       4.32501672      -1.86396403       3.39684367
Si      -2.56523821       4.67534193       2.75809836
Si      -5.34643546       2.01080712       5.63681185
Si       3.75019479       2.86486765       4.05222596
Si       1.64859692       4.15756650       1.30144680
Si      -3.24483758       0.71810827       8.38759100
16
Lattice="8.506023486292383 -1.163163324756609 -1.0833504870412662 -4.874436521006452 7.067195546126123 1.0833505723831753 -3.457780877713039 -1.942025117892827 7.690989701617388" Properties=species:S:1:pos:R:3 unique_starting_index=82 config_type=initial n_minim_iter=15 stress="0.003726555702470695 0.0020285909273799426 -0.0004719962332851655 0.0020285909273799426 0.005776734021653251 0.0002903262892958988 -0.0004719962332851655 0.0002903262892958988 0.0023580095406972963" pbc="T T T"
Si      -1.66766114       2.70492372       2.17246656
Si       0.78091101       5.97835040       2.58562194
Si      -5.51664223       5.78307737       6.55963671
Si       1.17211122       0.95817163       5.88944150
Si       0.32809211       3.58187578       3.03173006
Si      -0.77140396       4.82863821       1.25939051
Si      -5.39923705       3.60631555       7.41890016
Si       1.49814432       2.86217332       4.56321011
Si       4.54035981       4.40024406      -0.10711510
Si      -2.80135182      -1.40099706       6.14985047
Si       4.27614610      -1.68547023       3.19670444
Si      -2.53713811       4.68471723       2.84603093
Si      -5.46195479       2.03835544       5.68010933
Si       3.75826760       3.07850308       3.98799699
Si       1.69924095       4.34501625       1.29293927
Si      -3.40292814       0.77184227       8.37516706
16
Lattice="8.515715891248014 -1.0906491254825468 -1.1372752289627348 -4.8140875393615445 7.1085507398397185 1.1372753159506075 -3.5357191218964603 -1.9725611065973598 7.655587539410514" Properties=species:S:1:pos:R:3 unique_starting_index=82 config_type=initial n_minim_iter=16 stress="0.0007819653583452971 0.004740696121591639 -0.00303311718347464 0.004740696121591639 0.005573109865747818 0.001865679147320327 -0.00303311718347464 0.001865679147320327 -0.0029100340237957862" pbc="T T T"
Si      -1.63415833       2.76215978       2.16190245
Si       0.82502523       6.03032394       2.58820843
Si      -5.52639041       5.78970580       6.55833389
Si       1.18153819       1.03021681       5.84736454
Si       0.35246907       3.67660198       3.02461631
Si      -0.74696599       4.86083784       1.28885703
Si      -5.44656176       3.60418059       7.42104770
Si       1.51634572       2.96069813       4.54801318
Si       4.57710124       4.50391826      -0.13311811
Si      -2.84570553      -1.42151290       6.14015164
Si       4.23610402      -1.63016214       3.12603798
Si      -2.50470831       4.71256751       2.88099555
Si      -5.49661857       2.04931852       5.66797774
Si       3.77960124       3.15421543       3.97044801
Si       1.71763784       4.42253500       1.27154638
Si      -3.43465517       0.78099895       8.36687937
16
Lattice="8.50636086250253 -1.1099401529598214 -1.0852629283991924 -4.827085958796266 7.091500773813 1.08526301486176 -3.480698085700233 -1.9813593706919719 7.663347425922898" Properties=species:S:1:pos:R:3 unique_starting_index=82 config_type=initial n_minim_iter=17 stress="0.0004061615063554909 0.0002604346051177309 -0.00224546861084656 0.0002604346051177309 0.0006693674737185542 0.0013811941282126589 -0.00224546861084656 0.0013811941282126589 -0.0003285066103994846" pbc="T T T"
Si      -1.63391102       2.77785501       2.12584836
Si       0.82538947       5.96416187       2.60007896
Si      -5.53045259       5.75131177       6.50015359
Si       1.24123296       1.00934574       5.88912116
Si       0.35758196       3.62644893       3.02835080
Si      -0.74867778       4.85880821       1.25800141
Si      -5.38965864       3.59114209       7.40265599
Si       1.51786473       2.91275568       4.54704365
Si       4.56819209       4.51084645      -0.11516112
Si      -2.82992435      -1.45771342       6.15711885
Si       4.22638193      -1.67572086       3.17388107
Si      -2.48811419       4.72885388       2.86807667
Si      -5.46397056       2.04980585       5.62309831
Si       3.80161088       3.09506270       3.99993043
Si       1.69973940       4.38792985       1.24879316
Si      -3.36209908       0.75693870       8.37423558
16
Lattice="8.48513171998334 -1.1015987720520204 -1.0442748185521915 -4.810066584949787 7.076315385002931 1.044274904915828 -3.4418148960967208 -2.0005598063684724 7.645466678945525" Properties=species:S:1:pos:R:3 unique_starting_index=82 config_type=initial n_minim_iter=18 stress="-0.0020607232249978285 -0.00032421899544291335 0.0015363042576398416 -0.00032421899544291335 -0.002388392372160224 -0.0009449851225607072 0.0015363042576398416 -0.0009449851225607072 -0.001468251660339889" pbc="T T T"
Si      -1.62086342       2.76186062       2.10740237
Si       0.84215351       5.95238559       2.58269830
Si      -5.48444630       5.72626523       6.45227317
Si       1.26392150       0.98742118       5.88329418
Si       0.38011945       3.61980687       3.02275465
Si      -0.74927922       4.84252389       1.23606439
Si      -5.34771947       3.55340764       7.36762541
Si       1.53674481       2.90836331       4.53666031
Si       4.54808373       4.51402489      -0.10780631
Si      -2.79911121      -1.47219313       6.15712376
Si       4.21909332      -1.67148080       3.19278955
Si      -2.47012080       4.71331256       2.85652790
Si      -5.41987046       2.03614817       5.57912143
Si       3.81573463       3.06818999       4.00122651
Si       1.70176250       4.36850029       1.23425071
Si      -3.30589833       0.73583788       8.34609723
16
Lattice="8.477737465421562 -1.0752433433100452 -1.027540867571524 -4.783208976042458 7.081602395858451 1.027540954392545 -3.435522026993998 -2.026237769769834 7.627291125745259" Properties=species:S:1:pos:R:3 unique_starting_index=82 config_type=initial n_minim_iter=19 stress="0.0004893882073406296 0.0006442370118708004 0.0018487080076897246 0.0006442370118708004 0.0011404809770387892 -0.0011371455250901216 0.0018487080076897246 -0.0011371455250901216 0.0005660841833420049" pbc="T T T"
Si      -1.59959870       2.75952370       2.09734361
Si       0.86712397       5.96989752       2.56456468
Si      -5.44646307       5.71396576       6.42475966
Si       1.27846631       0.98921770       5.86443975
Si       0.39705619       3.63312293       3.01739822
Si      -0.73518447       4.85373469       1.22923887
Si      -5.32565878       3.53791136       7.34481422
Si       1.55200847       2.92270848       4.52911399
Si       4.54263951       4.55006337      -0.10399705
Si      -2.79333841      -1.48662652       6.16191584
Si       4.20338554      -1.65089422       3.19587801
Si      -2.45408444       4.71433108       2.86204077
Si      -5.39346929       2.02487171       5.54503426
Si       3.83760882       3.07157935       3.99342409
Si       1.71689057       4.37603921       1.21761829
Si      -3.27275104       0.72041185       8.32084006
16
Lattice="8.472140388163883 -1.0643496518056421 -1.0454314832681202 -4.770961813064374 7.081520044064065 1.0454315702454138 -3.4530296182205262 -2.0229197137194697 7.614940066198963" Properties=species:S:1:pos:R:3 unique_starting_index=82 config_type=initial n_minim_iter=20 stress="-3.404628036776184e-05 -0.0025006591379583797 -0.000340640763888051 -0.0025006591379583797 -0.0025613163867691927 0.0002095290203030799 -0.000340640763888051 0.0002095290203030799 0.0014169677313403" pbc="T T T"
Si      -1.58267068       2.75048445       2.10700801
Si       0.86674507       5.98365919       2.54447598
Si      -5.43006584       5.70995748       6.43719383
Si       1.26111062       1.00126645       5.82923023
Si       0.39510362       3.65832066       3.01767086
Si      -0.74084543       4.84812189       1.24398669
Si      -5.34833404       3.53531320       7.34785664
Si       1.54956261       2.94820963       4.52874098
Si       4.51768976       4.55439336      -0.11106371
Si      -2.79546584      -1.46685035       6.17371174
Si       4.18336614      -1.61266173       3.17369052
Si      -2.46114221       4.70020475       2.88895752
Si      -5.38594039       2.03208501       5.53651324
Si       3.83418427       3.06929236       3.97383828
Si       1.71980341       4.36985407       1.20632749
Si      -3.27155953       0.73152330       8.30402403
16
Lattice="8.463153130748694 -1.0352860598346527 -1.039321180962889 -4.740968657516209 7.086606673635725 1.039321268433816 -3.4562475516189672 -2.04447585797185 7.592854403021726" Properties=species:S:1:pos:R:3 unique_starting_index=82 config_type=initial n_minim_iter=21 stress="9.112554659790288e-05 0.0013353417916204318 0.0008276382189642633 0.0013353417916204318 0.0014406775078848245 -0.0005090825757701579 0.0008276382189642633 -0.0005090825757701579 -0.0005185064665290182" pbc="T T T"
Si      -1.56429377       2.75083011       2.10386295
Si       0.88664283       6.00684168       2.52943595
Si      -5.39819565       5.70224018       6.41995079
Si       1.26429716       1.01095575       5.80620251
Si       0.40524731       3.67041958       3.00899125
Si      -0.72046139       4.86431628       1.24263923
Si      -5.33066711       3.52964339       7.32507905
Si       1.55920548       2.96061661       4.51940583
Si       4.52773550       4.58597140      -0.11135480
Si      -2.79501787      -1.48134759       6.15959847
Si       4.17461614      -1.59796578       3.16541175
Si      -2.44189851       4.70258958       2.88283193
Si      -5.37146068       2.01499223       5.51785444
Si       3.84661370       3.09336876       3.96080625
Si       1.73870487       4.38994950       1.20176668
Si      -3.26355184       0.71841148       8.27689401
