24
Lattice="7.813235793725488 -8.266519898490019e-11 1.3810016717516793e-13 3.9066178969343395 6.766460683082811 -1.1922433098417558e-13 3.90661789688644 2.255486894333639 9.414842161780985" Properties=species:S:1:pos:R:3 unique_starting_index=24 config_type=initial n_minim_iter=10 energy=-3904.863163130042 free_energy=-3904.863163130042 pbc="T T T"
Si       9.16945692       4.75971584       9.30431134
Si       6.91970751       5.56112471       9.30431134
Si       7.35054178       3.21208014       9.30431134
Si       8.64261893       3.32065187       5.61827922
Si       8.42939247       5.82440161       5.61827922
Si       6.36769481       4.38786721       5.61827922
Si       9.59561020       2.78297452       1.89149196
Si       8.41853908       6.91855494       1.89149196
Si       5.42555694       3.83139124       1.89149196
Si       9.18626564       5.01304762       3.10167661
Si       6.69191140       5.44901560       3.10167661
Si       7.56152917       3.07085747       3.10167661
Si       8.69585109       6.74036521       7.88333125
Si       5.44121776       4.16064535       7.88333125
Si       9.30263736       2.63191013       7.88333125
Si      10.05295729       4.80083660       7.06003858
Si       6.44234571       6.30569810       7.06003858
Si       6.94440321       2.42638599       7.06003858
Si       9.06407782       8.22540214       5.70011043
Si       3.97102469       3.73702059       5.70011043
Si      10.40460370       1.57049797       5.70011043
Si       5.44920236       1.84557395       3.26046948
Si       3.49031991       3.79636070       3.26046948
Si       2.78033025       1.12452536       3.26046948
