18
Lattice="7.038384030953186 1.5543370103559089 -0.15575848084271723 -2.0449983298638874 6.911786682167851 0.15575848084276095 -3.4946286949631173 -3.6444715117592335 6.7217617016344535" Properties=species:S:1:pos:R:3 unique_starting_index=64 config_type=initial n_minim_iter=1 energy=-2930.9754276525373 free_energy=-2930.9754276525373 pbc="T T T"
Si       0.73331479       2.73677011       4.78167514
Si       3.22744493       0.63570029       1.34291505
Si      -0.63574207       1.05260707       1.41518581
Si       0.54436609      -0.99578621       4.69818742
Si       2.61737789      -1.87203423       3.97424535
Si       6.12747054       8.12844258       0.69124373
Si      -2.71994443       4.14351686       3.85944863
Si       0.32555245       2.97727151       0.42068854
Si      -0.91682318       4.50829101       2.16948066
Si      -2.61593047      -2.42171879       5.45248227
Si      -2.55900921       1.84053452       4.51111995
Si       2.41891254       3.95065292       1.07235985
Si       2.28007312       5.82517336       2.60118184
Si      -4.26670276       1.05511361       6.03994193
Si       4.18873945       2.56036473       0.34841778
Si      -0.48599741       0.96428650       3.78717787
Si      -1.06980646       2.37199597       6.47164311
Si       2.67429915       2.39021908       3.03288302
18
Lattice="7.042406959187535 1.5528659366077362 -0.15855229675538127 -2.0482321359962725 6.9145956868758285 0.158552296755425 -3.498995362543983 -3.6427976978669134 6.717550736022679" Properties=species:S:1:pos:R:3 unique_starting_index=64 config_type=initial n_minim_iter=2 stress="0.00015230545889476495 -7.630335655203901e-05 -9.048685355635048e-05 -7.630335655203901e-05 6.793990381567532e-05 5.3369851078722197e-05 -9.048685355635048e-05 5.3369851078722197e-05 -8.593188857207571e-06" pbc="T T T"
Si       0.73069722       2.73874036       4.77864979
Si       3.22864920       0.63546576       1.34059828
Si      -0.63707707       1.05356756       1.41517624
Si       0.54270793      -0.99498085       4.69467546
Si       2.61758149      -1.87219087       3.96955254
Si       6.12866732       8.12957709       0.69005332
Si      -2.72454415       4.14670557       3.85910934
Si       0.32473137       2.97818218       0.42105783
Si      -0.91962963       4.51067412       2.16957692
Si      -2.61954557      -2.42031396       5.44907614
Si      -2.56319628       1.84304111       4.50965430
Si       2.41888807       3.95153247       1.07160279
Si       2.27870567       5.82721042       2.59985381
Si      -4.27255260       1.05823550       6.03790533
Si       4.19045764       2.56008038       0.34647986
Si      -0.48832273       0.96583109       3.78453138
Si      -1.07421730       2.37477181       6.46818222
Si       2.67393078       2.39116420       3.03013070
18
Lattice="7.040352730680942 1.554043538163965 -0.1577175024279018 -2.046207661819117 6.913367637817955 0.15771750242794552 -3.4976967767690734 -3.643529615453885 6.714366188312737" Properties=species:S:1:pos:R:3 unique_starting_index=64 config_type=initial n_minim_iter=3 stress="-0.00029469372134125025 6.130451786971789e-05 1.1814523438710152e-05 6.130451786971789e-05 -0.0002269117794618436 -6.968297953954521e-06 1.1814523438710152e-05 -6.968297953954521e-06 -0.0006767918294256856" pbc="T T T"
Si       0.73137572       2.73808278       4.77644243
Si       3.22787654       0.63614486       1.34040058
Si      -0.63634365       1.05330008       1.41534285
Si       0.54291904      -0.99527048       4.69366720
Si       2.61655013      -1.87163423       3.96811215
Si       6.12802923       8.12993708       0.68978780
Si      -2.72216332       4.14552472       3.85668361
Si       0.32524029       2.97762462       0.42064176
Si      -0.91814712       4.51000499       2.16800514
Si      -2.61862054      -2.42106484       5.44632948
Si      -2.56113008       1.84187408       4.50729639
Si       2.41923267       3.95124357       1.07125454
Si       2.27951529       5.82696892       2.59854210
Si      -4.27030290       1.05663857       6.03458394
Si       4.18946048       2.56046939       0.34569949
Si      -0.48749898       0.96551034       3.78174134
Si      -1.07264048       2.37360251       6.46512090
Si       2.67404059       2.39130470       3.02907906
18
Lattice="7.041129836225738 1.5559519973059126 -0.15665264489356742 -2.0449134178435626 6.914971084685166 0.15665264489361116 -3.497394163302218 -3.6460749012794205 6.718776731780014" Properties=species:S:1:pos:R:3 unique_starting_index=64 config_type=initial n_minim_iter=4 stress="0.00020702600455134017 0.0001671002263847361 0.00018067980563442226 0.0001671002263847361 0.00039178200991997464 -0.00010656635677623041 0.00018067980563442226 -0.00010656635677623041 -0.00014659717307407636" pbc="T T T"
Si       0.73245968       2.73824943       4.77968667
Si       3.22849292       0.63734335       1.34197198
Si      -0.63564701       1.05350553       1.41797867
Si       0.54361668      -0.99629707       4.69904071
Si       2.61647770      -1.87185359       3.97133919
Si       6.12971819       8.13393783       0.69027715
Si      -2.72032941       4.14600510       3.85828238
Si       0.32594493       2.97801499       0.42056769
Si      -0.91680097       4.51132467       2.16848591
Si      -2.61858379      -2.42319895       5.44954796
Si      -2.55943401       1.84113704       4.50997721
Si       2.42093607       3.95234360       1.07226252
Si       2.28162989       5.82931640       2.60012718
Si      -4.26949962       1.05493812       6.03784187
Si       4.19008486       2.56185281       0.34456100
Si      -0.48657299       0.96558051       3.78227569
Si      -1.07106877       2.37292986       6.46948313
Si       2.67562747       2.39248239       3.03176845
18
Lattice="7.038183822190389 1.5532957649864658 -0.15839998160329852 -2.045812729721424 6.911107691490355 0.15839998160334223 -3.4970407721844095 -3.641889519767857 6.723670131849311" Properties=species:S:1:pos:R:3 unique_starting_index=64 config_type=initial n_minim_iter=5 stress="-3.140791984047473e-05 3.035389343536759e-05 -4.1557308678001917e-05 3.035389343536759e-05 2.15316035495429e-06 2.451082437123982e-05 -4.1557308678001917e-05 2.451082437123982e-05 2.7805589639087013e-05" pbc="T T T"
Si       0.72996631       2.73696880       4.78317593
Si       3.22675665       0.63672258       1.34214087
Si      -0.63597276       1.05337449       1.42026665
Si       0.54227646      -0.99518568       4.70290173
Si       2.61450410      -1.87054518       3.97284779
Si       6.12506825       8.12774614       0.69021272
Si      -2.72102618       4.14477122       3.86224157
Si       0.32503698       2.97579927       0.42120651
Si      -0.91802654       4.50933651       2.17066609
Si      -2.61873407      -2.42040156       5.45330117
Si      -2.55975124       1.84117752       4.51416972
Si       2.41909647       3.94917917       1.07313466
Si       2.27888682       5.82580086       2.60219122
Si      -4.26994668       1.05593917       6.04322627
Si       4.18776639       2.55914737       0.34308073
Si      -0.48752360       0.96581801       3.78411578
Si      -1.07303333       2.37240351       6.47475140
Si       2.67348693       2.39103389       3.03371634
18
Lattice="7.038493659521263 1.5517517261218732 -0.15744168307388154 -2.047313928405902 6.910631815774763 0.15744168307392523 -3.4956003412014094 -3.6413778027885786 6.723334955792414" Properties=species:S:1:pos:R:3 unique_starting_index=64 config_type=initial n_minim_iter=6 stress="4.321642009101254e-05 -9.665362174292323e-05 5.981065600838061e-05 -9.665362174292323e-05 -6.364960543219858e-05 -3.527679081099734e-05 5.981065600838061e-05 -3.527679081099734e-05 -3.696537366406919e-06" pbc="T T T"
Si       0.73005441       2.73599663       4.78292519
Si       3.22708449       0.63608744       1.34253687
Si      -0.63620007       1.05332764       1.42012258
Si       0.54308231      -0.99548076       4.70306922
Si       2.61558443      -1.87112119       3.97319360
Si       6.12402824       8.12557509       0.69024697
Si      -2.72127979       4.14447903       3.86138791
Si       0.32460440       2.97513421       0.42099959
Si      -0.91859834       4.50894432       2.16988710
Si      -2.61779266      -2.42022806       5.45283374
Si      -2.55949589       1.84096503       4.51367780
Si       2.41884038       3.94803010       1.07328949
Si       2.27841332       5.82447147       2.60196239
Si      -4.26963870       1.05600419       6.04235071
Si       4.18788895       2.55789400       0.34341387
Si      -0.48699376       0.96532460       3.78380219
Si      -1.07262704       2.37153134       6.47442599
Si       2.67388120       2.39007190       3.03403767
18
Lattice="7.037861738391488 1.5537319581142008 -0.15712629097502617 -2.045275157150439 6.911036852594801 0.1571262909750699 -3.4956675222213036 -3.6429456988873445 6.723198167646144" Properties=species:S:1:pos:R:3 unique_starting_index=64 config_type=initial n_minim_iter=7 stress="1.260559668146033e-06 -4.0662355400138035e-05 3.4473654445015656e-05 -4.0662355400138035e-05 -4.3698172675883196e-05 -2.033282992531043e-05 3.4473654445015656e-05 -2.033282992531043e-05 1.2101578894204113e-05" pbc="T T T"
Si       0.72933473       2.73610020       4.78269357
Si       3.22636365       0.63844184       1.34253134
Si      -0.63772008       1.05392131       1.42027609
Si       0.54147815      -0.99423094       4.70331203
Si       2.61360227      -1.87023274       3.97187859
Si       6.12404845       8.12905968       0.68884265
Si      -2.71810267       4.14453439       3.86122245
Si       0.32581109       2.97410158       0.42106022
Si      -0.91675145       4.51102201       2.16797857
Si      -2.61906662      -2.42264285       5.45101451
Si      -2.55709505       1.83983047       4.51491113
Si       2.42071287       3.94825256       1.07474890
Si       2.28019785       5.82661969       2.60187689
Si      -4.26896579       1.05401489       6.04203912
Si       4.18989482       2.55862212       0.34331547
Si      -0.48497093       0.96382867       3.78347770
Si      -1.07201649       2.36961257       6.47593744
Si       2.67557383       2.39224057       3.03577522
18
Lattice="7.039029705925526 1.5564501892611402 -0.1584426718127847 -2.043461333075936 6.9133741525232475 0.15844267181282845 -3.49858158579769 -3.644634068987216 6.721284515584283" Properties=species:S:1:pos:R:3 unique_starting_index=64 config_type=initial n_minim_iter=8 stress="-3.37641492841426e-05 0.00016325911002044503 -0.00011652061930005826 0.00016325911002044503 0.00014674488807570618 6.872476890596253e-05 -0.00011652061930005826 6.872476890596253e-05 -1.5364747499938382e-05" pbc="T T T"
Si       0.72894459       2.73862859       4.78141108
Si       3.22600390       0.63976460       1.34154748
Si      -0.63745812       1.05431749       1.41976077
Si       0.54038588      -0.99413565       4.70118169
Si       2.61155039      -1.86983426       3.96899304
Si       6.12656258       8.13520452       0.68757212
Si      -2.71779823       4.14546539       3.86100902
Si       0.32718538       2.97558930       0.42114542
Si      -0.91572738       4.51365301       2.16698667
Si      -2.62174600      -2.42429578       5.44840759
Si      -2.55694269       1.84055409       4.51498438
Si       2.42219508       3.94997372       1.07512079
Si       2.28205518       5.83094250       2.60127825
Si      -4.27090882       1.05315148       6.04114184
Si       4.19064740       2.56103641       0.34293214
Si      -0.48577819       0.96485548       3.78279573
Si      -1.07312626       2.37044097       6.47543343
Si       2.67635369       2.39501561       3.03556983
18
Lattice="7.040764709911421 1.5539936213065326 -0.15714205145845708 -2.0464506708656516 6.913704038148362 0.15714205145850077 -3.497103686628662 -3.644072496340431 6.718990821931108" Properties=species:S:1:pos:R:3 unique_starting_index=64 config_type=initial n_minim_iter=9 stress="5.938063792162587e-06 2.985987983468692e-06 2.1477592960830848e-06 2.985987983468692e-06 9.239550712846935e-06 -1.2667651624566178e-06 2.1477592960830848e-06 -1.2667651624566178e-06 5.914293454825952e-06" pbc="T T T"
Si       0.72834097       2.73864442       4.78001286
Si       3.22582624       0.63877559       1.34194642
Si      -0.63734729       1.05448652       1.41853074
Si       0.54189770      -0.99526247       4.69945512
Si       2.61192052      -1.87129733       3.96663078
Si       6.12516098       8.13440873       0.68570639
Si      -2.71841618       4.14473607       3.85857467
Si       0.32765292       2.97497335       0.42050824
Si      -0.91656960       4.51521223       2.16291644
Si      -2.62191194      -2.42526112       5.44384082
Si      -2.55554505       1.84097378       4.51481470
Si       2.42263221       3.94703787       1.07674827
Si       2.28244826       5.83142426       2.60026055
Si      -4.27252347       1.05195623       6.03832698
Si       4.19082645       2.55926242       0.34392392
Si      -0.48552223       0.96493891       3.78199036
Si      -1.07350560       2.36816825       6.47567110
Si       2.67828741       2.39493757       3.03760466
