24
Lattice="7.94012193130925 -1.1729536483156254e-11 1.6113377312551334e-13 3.9700609656647825 6.8763473016539045 -1.4437060634962399e-13 3.9700609656577965 2.2921157672143995 10.428256382002486" Properties=species:S:1:pos:R:3 unique_starting_index=24 config_type=initial n_minim_iter=1 energy=-3901.682780505111 free_energy=-3901.682780505111 pbc="T T T"
Si       9.29850940       4.93478722      10.32483171
Si       6.95733728       5.58535175      10.32483171
Si       7.56451793       3.23255495      10.32483171
Si       8.98276253       3.59635306       6.47734053
Si       8.27432869       5.98112402       6.47734053
Si       6.56327338       4.17521684       6.47734053
Si       8.84897670       2.64869652       1.84191681
Si       9.16191625       6.33909036       1.84191681
Si       5.80947166       4.76490704       1.84191681
Si       9.52662239       4.47472448       3.26934350
Si       7.24170681       6.01293476       3.26934350
Si       7.05203541       3.26503468       3.26934350
Si       8.54374423       6.78098882       8.91632708
Si       5.73586237       4.00860514       8.91632708
Si       9.54075800       2.96309996       8.91632708
Si      10.07925526       5.12242488       8.09528570
Si       6.40446536       6.16767867       8.09528570
Si       7.33664398       2.46259037       8.09528570
Si       9.16399868       8.42083912       7.42652648
Si       4.00558313       3.72583609       7.42652648
Si      10.65078280       1.60601870       7.42652648
Si       5.46190349       1.83975541       2.18489337
Si       3.61589447       3.81026947       2.18489337
Si       2.83238375       1.22632174       2.18489337
24
Lattice="7.89569841671725 -1.1687486036305262e-11 1.6081298889963734e-13 3.9478492083687473 6.837875409491871 -1.4381988207261294e-13 3.947849208361781 2.279291803160409 10.629147015868842" Properties=species:S:1:pos:R:3 unique_starting_index=24 config_type=initial n_minim_iter=2 stress="0.0031027158721825513 -1.3503784645227448e-16 -1.9036853998429525e-16 -1.3503784645227448e-16 0.0031027158721827494 2.3370446778559823e-16 -1.9036853998429525e-16 2.3370446778559823e-16 0.008151199515089021" pbc="T T T"
Si       9.24797659       4.90563270      10.52439739
Si       6.91900521       5.55616631      10.52439739
Si       7.52011227       3.21395113      10.52439739
Si       8.93195901       3.57248268       6.60241490
Si       8.23155579       5.94906207       6.60241490
Si       6.52357927       4.15420539       6.60241490
Si       8.79680417       2.63669410       1.87789600
Si       9.10954989       6.29990883       1.87789600
Si       5.78074001       4.73914721       1.87789600
Si       9.46930859       4.45144018       3.33882334
Si       7.20168147       5.97494171       3.33882334
Si       7.01610401       3.24936825       3.33882334
Si       8.49654761       6.73832710       9.08780935
Si       5.70755980       3.98906252       9.08780935
Si       9.48298667       2.94836052       9.08780935
Si      10.02480619       5.09674884       8.24409334
Si       6.36507898       6.13336241       8.24409334
Si       7.29720890       2.44563889       8.24409334
Si       9.11079696       8.37572481       7.56651255
Si       3.98240711       3.70231921       7.56651255
Si      10.59389000       1.59770612       7.56651255
Si       5.43301703       1.83025132       2.22952804
Si       3.59414497       3.79000511       2.22952804
Si       2.81638444       1.21761830       2.22952804
24
Lattice="7.821762182375017 -1.1620329408809558e-11 1.6086210937746484e-13 3.910881091197572 6.773844752291372 -1.439383121236423e-13 3.910881091190647 2.257948250760262 10.648749065823662" Properties=species:S:1:pos:R:3 unique_starting_index=24 config_type=initial n_minim_iter=3 stress="-0.007121805956870288 -3.541965245912784e-17 -1.519109538802594e-16 -3.541965245912784e-17 -0.007121805956870389 2.546279460117301e-16 -1.519109538802594e-16 2.546279460117301e-16 0.0029517932525535465" pbc="T T T"
Si       9.16364851       4.85815848      10.54446407
Si       6.85441067       5.50687316      10.54446407
Si       7.44722620       3.18265719      10.54446407
Si       8.84798154       3.53465509       6.61562271
Si       8.15843171       5.89524924       6.61562271
Si       6.45887212       4.11778449       6.61562271
Si       8.71160412       2.61529522       1.88197811
Si       9.02280942       6.23682287       1.88197811
Si       5.73087183       4.69557074       1.88197811
Si       9.37607591       4.41168013       3.35232245
Si       7.13485856       5.91407986       3.35232245
Si       6.95435090       3.22192883       3.35232245
Si       8.41757692       6.66997563       9.10360530
Si       5.65836678       3.95484764       9.10360530
Si       9.38934167       2.92286556       9.10360530
Si       9.93245500       5.05208329       8.25163494
Si       6.30206362       6.07571671       8.25163494
Si       7.23076676       2.41988883       8.25163494
Si       9.02343084       8.29918507       7.57713773
Si       3.94450307       3.66492781       7.57713773
Si      10.49735147       1.58357596       7.57713773
Si       5.38380636       1.81423639       2.23594386
Si       3.55868342       3.75539488       2.23594386
Si       2.79015232       1.20421281       2.23594386
24
Lattice="7.797693294070963 -1.1905250079245296e-11 1.6081677804472385e-13 3.898846647045793 6.753000483579073 -1.442183900476063e-13 3.8988466470387046 2.2510001611893955 10.574184193133451" Properties=species:S:1:pos:R:3 unique_starting_index=24 config_type=initial n_minim_iter=4 stress="-0.0041156498876180805 1.816430583919125e-16 9.490899648139444e-17 1.816430583919125e-16 -0.004115649887618438 -1.714742373403345e-16 9.490899648139444e-17 -1.714742373403345e-16 -0.0011759992321691915" pbc="T T T"
Si       9.16152714       4.83187280      10.47739349
Si       6.83009765       5.51817885      10.47739349
Si       7.40145392       3.15594865      10.47739349
Si       8.82044949       3.48349648       6.57817693
Si       8.16836462       5.89698509       6.57817693
Si       6.40426460       4.12551873       6.57817693
Si       8.66030680       2.63601363       1.87301909
Si       8.98237764       6.18203888       1.87301909
Si       5.75039427       4.68794778       1.87301909
Si       9.30613787       4.41500247       3.39575408
Si       7.11881258       5.85185057       3.39575408
Si       6.96812826       3.23914726       3.39575408
Si       8.39693454       6.60763803       9.02965271
Si       5.67453615       3.96813961       9.02965271
Si       9.32160803       2.93022266       9.02965271
Si       9.91476832       5.06306901       8.12885488
Si       6.25325527       6.05490673       8.12885488
Si       7.22505513       2.38802455       8.12885488
Si       8.98048332       8.28807630       7.49490238
Si       3.92745953       3.63328854       7.49490238
Si      10.48513587       1.58463545       7.49490238
Si       5.38140104       1.81958300       2.23790666
Si       3.53118689       3.75063851       2.23790666
Si       2.78395084       1.18277830       2.23790666
24
Lattice="7.785601134084013 -1.2166388676948826e-11 1.6110466338729268e-13 3.892800567052545 6.742528365843619 -1.445233386389096e-13 3.8928005670453074 2.247509455277489 10.542861120605966" Properties=species:S:1:pos:R:3 unique_starting_index=24 config_type=initial n_minim_iter=5 stress="8.816449094375518e-05 2.24675043317187e-17 1.123375216585935e-16 2.24675043317187e-17 8.81644909433957e-05 -4.284874040406352e-16 1.123375216585935e-16 -4.284874040406352e-16 -0.0013772798229214824" pbc="T T T"
Si       9.16683658       4.81295522      10.44793868
Si       6.81964172       5.53223574      10.44793868
Si       7.37032394       3.13986510      10.44793868
Si       8.80249647       3.44714837       6.55680380
Si       8.18463520       5.89961138       6.55680380
Si       6.36967056       4.13829631       6.55680380
Si       8.62998858       2.65726288       1.87330278
Si       8.95495004       6.14515790       1.87330278
Si       5.77186361       4.68263528       1.87330278
Si       9.25132033       4.42075883       3.45380291
Si       7.11705188       5.80149902       3.45380291
Si       6.98843003       3.26279822       3.45380291
Si       8.37919106       6.57853668       8.98854518
Si       5.68442608       3.96732398       8.98854518
Si       9.29318510       2.93919540       8.98854518
Si       9.91563303       5.06336258       8.05136492
Si       6.22838436       6.05550881       8.05136492
Si       7.21278485       2.36618467       8.05136492
Si       8.95865335       8.27696222       7.44933475
Si       3.92381527       3.61994028       7.44933475
Si      10.47433362       1.58815356       7.44933475
Si       5.38549832       1.82906119       2.24877954
Si       3.50883774       3.74944777       2.24877954
Si       2.78406447       1.16401874       2.24877954
24
Lattice="7.787085571237884 -1.228276489645758e-11 1.6162389906346618e-13 3.89354278562958 6.743813926129137 -1.451599601294087e-13 3.893542785622277 2.247937975372623 10.548006125450035" Properties=species:S:1:pos:R:3 unique_starting_index=24 config_type=initial n_minim_iter=6 stress="0.0051260817293187775 6.473838378037012e-17 2.1245413872195768e-17 6.473838378037012e-17 0.005126081729318983 -4.45752834450598e-16 2.1245413872195768e-17 -4.45752834450598e-16 0.004722582566572896" pbc="T T T"
Si       9.16845285       4.80917106      10.44235082
Si       6.82507963       5.53552756      10.44235082
Si       7.36772306       3.14292857      10.44235082
Si       8.79347479       3.44610482       6.53341600
Si       8.19301866       5.89232015       6.53341600
Si       6.37476210       4.14920222       6.53341600
Si       8.63704356       2.66924944       1.88382576
Si       8.94401076       6.14527442       1.88382576
Si       5.78020123       4.67310333       1.88382576
Si       9.23094702       4.42077232       3.50842176
Si       7.13019572       5.78384846       3.50842176
Si       7.00011281       3.28300640       3.50842176
Si       8.36490780       6.60462139       8.97648653
Si       5.67194656       3.94191196       8.97648653
Si       9.32440119       2.94109383       8.97648653
Si       9.93088394       5.04079132       8.04375015
Si       6.24327506       6.08000212       8.04375015
Si       7.18709655       2.36683375       8.04375015
Si       8.96776065       8.25248212       7.44256758
Si       3.94343088       3.64006748       7.44256758
Si      10.45006401       1.59507758       7.44256758
Si       5.39184251       1.84544061       2.26300047
Si       3.49296509       3.74675228       2.26300047
Si       2.79581959       1.15162036       2.26300047
24
Lattice="7.734645001367682 -1.2270270057141216e-11 1.614595022014155e-13 3.86732250069447 6.698399060432617 -1.451564564793832e-13 3.8673225006871754 2.2327996868071165 10.49307374216753" Properties=species:S:1:pos:R:3 unique_starting_index=24 config_type=initial n_minim_iter=7 stress="-0.005394826719535755 1.7767051229578728e-17 6.473741654915468e-17 1.7767051229578728e-17 -0.005394826719535232 -6.11023187113788e-16 6.473741654915468e-17 -6.11023187113788e-16 -0.0042968261567682695" pbc="T T T"
Si       9.10302793       4.78004410      10.37700521
Si       6.77813565       5.49343139      10.37700521
Si       7.32277027       3.12332197      10.37700521
Si       8.72569473       3.42627729       6.48225744
Si       8.13919870       5.84353466       6.48225744
Si       6.33904042       4.12698551       6.48225744
Si       8.59044476       2.65384153       1.88409377
Si       8.87577267       6.11262263       1.88409377
Si       5.73771642       4.63033329       1.88409377
Si       9.16459717       4.38676115       3.51736333
Si       7.08794405       5.74339339       3.51736333
Si       6.95139263       3.26664291       3.51736333
Si       8.30963410       6.56671956       8.92288763
Si       5.62752623       3.91299445       8.92288763
Si       9.26677352       2.91708345       8.92288763
Si       9.86059005       5.00330191       8.00586837
Si       6.20600765       6.03787052       8.00586837
Si       7.13733615       2.35562502       8.00586837
Si       8.90829756       8.17867552       7.39004841
Si       3.93219968       3.62547423       7.39004841
Si      10.36343661       1.59264771       7.39004841
Si       5.35665477       1.84781794       2.25862189
Si       3.45605957       3.71509015       2.25862189
Si       2.78925200       1.13549031       2.25862189
24
Lattice="7.7712614156304225 -1.2382177858602023e-11 1.626876206432504e-13 3.885630707825936 6.730109805379591 -1.4644289621645335e-13 3.8856307078185783 2.2433699351227365 10.49141718904234" Properties=species:S:1:pos:R:3 unique_starting_index=24 config_type=initial n_minim_iter=8 stress="0.0009661163404066505 -4.53221415424488e-17 5.806899385126252e-17 -4.53221415424488e-17 0.0009661163404072721 -6.381519393968013e-16 5.806899385126252e-17 -6.381519393968013e-16 -0.0003718363940624657" pbc="T T T"
Si       9.13854898       4.81299372      10.36242714
Si       6.80507274       5.50771871      10.36242714
Si       7.37016137       3.13950651      10.36242714
Si       8.76005127       3.45031019       6.46745131
Si       8.17444015       5.86127185       6.46745131
Si       6.37929166       4.14863691       6.46745131
Si       8.65673417       2.66289659       1.90297035
Si       8.90801887       6.16550341       1.90297035
Si       5.74903004       4.63181894       1.90297035
Si       9.22273876       4.39739317       3.53494802
Si       7.12289848       5.78842947       3.53494802
Si       6.96814584       3.27439630       3.53494802
Si       8.36379972       6.59280979       8.91937669
Si       5.65108143       3.94685814       8.91937669
Si       9.29890193       2.92055101       8.91937669
Si       9.89492708       5.03440113       8.01878983
Si       6.23513925       6.05205766       8.01878983
Si       7.18371676       2.37376015       8.01878983
Si       8.94951824       8.19862870       7.36015619
Si       3.96754221       3.65119580       7.36015619
Si      10.39672264       1.61039445       7.36015619
Si       5.38012944       1.88260858       2.26431641
Si       3.45080906       3.71802448       2.26431641
Si       2.82595245       1.12947607       2.26431641
24
Lattice="7.734245529122892 -1.2619036260349224e-11 1.6290181783390735e-13 3.8671227645723762 6.698053107320352 -1.4679289656970372e-13 3.8671227645648822 2.232684369102911 10.53251705885372" Properties=species:S:1:pos:R:3 unique_starting_index=24 config_type=initial n_minim_iter=9 stress="0.0012051311007729025 5.290355601962274e-18 -2.2687486523799755e-16 5.290355601962274e-18 0.001205131100773215 -8.8389633595862e-16 -2.2687486523799755e-16 -8.8389633595862e-16 0.003919527487230817" pbc="T T T"
Si       9.10518781       4.79082555      10.39793602
Si       6.76691975       5.48991118      10.39793602
Si       7.33062787       3.11536882      10.39793602
Si       8.71174691       3.41850217       6.47755678
Si       8.15210711       5.83534306       6.47755678
Si       6.33888140       4.14226033       6.47755678
Si       8.63436752       2.66489278       1.94125172
Si       8.84344168       6.14513523       1.94125172
Si       5.72492623       4.58607754       1.94125172
Si       9.16101632       4.37642502       3.62254071
Si       7.09788688       5.74546035       3.62254071
Si       6.94383223       3.27422018       3.62254071
Si       8.33008470       6.55297838       8.93789939
Si       5.62840219       3.93757578       8.93789939
Si       9.24424854       2.90555139       8.93789939
Si       9.85924441       5.01210233       8.01654871
Si       6.19826014       6.03230496       8.01654871
Si       7.14523088       2.35169826       8.01654871
Si       8.90458576       8.13920562       7.33670038
Si       3.96743857       3.64199467       7.33670038
Si      10.33071110       1.61490526       7.33670038
Si       5.35975782       1.91626371       2.29129426
Si       3.39483280       3.68355457       2.29129426
Si       2.84677652       1.09823416       2.29129426
24
Lattice="7.7211139858069835 -1.2927282445400694e-11 1.637543611884882e-13 3.8605569929146877 6.686680857217729 -1.4725938272146751e-13 3.8605569929070205 2.2288936190685957 10.460297781634742" Properties=species:S:1:pos:R:3 unique_starting_index=24 config_type=initial n_minim_iter=10 stress="0.0004297136846764174 -2.649894229859574e-16 -2.855471749631457e-16 -2.649894229859574e-16 0.00042971368467710155 -1.3222746071727523e-15 -2.855471749631457e-16 -1.3222746071727523e-15 0.0016837810248852055" pbc="T T T"
Si       9.09425050       4.78785337      10.32288266
Si       6.74869930       5.48192528      10.32288266
Si       7.32039100       3.10358240      10.32288266
Si       8.69324662       3.40750850       6.41232979
Si       8.14461497       5.82481817       6.41232979
Si       6.32547921       4.14103439       6.41232979
Si       8.66467075       2.66590572       1.97905013
Si       8.80114975       6.17087213       1.97905013
Si       5.69752030       4.53658320       1.97905013
Si       9.14554341       4.36226146       3.67257222
Si       7.09162626       5.73914220       3.67257222
Si       6.92617113       3.27195739       3.67257222
Si       8.32506731       6.54741808       8.85805904
Si       5.60946316       3.93601074       8.85805904
Si       9.22881034       2.88993223       8.85805904
Si       9.86015394       4.99331967       7.93484457
Si       6.18780854       6.04248397       7.93484457
Si       7.11537831       2.33755741       7.93484457
Si       8.89270124       8.09271752       7.21364358
Si       3.98737763       3.65494642       7.21364358
Si      10.28326194       1.62569711       7.21364358
Si       5.34909609       1.97734429       2.29221418
Si       3.33413479       3.64378096       2.29221418
Si       2.89843895       1.06555495       2.29221418
24
Lattice="7.728063935155956 -1.3010181627991125e-11 1.6419249887068363e-13 3.8640319675892467 6.692699689908915 -1.4787086111557844e-13 3.864031967581533 2.230899896632295 10.415343310966431" Properties=species:S:1:pos:R:3 unique_starting_index=24 config_type=initial n_minim_iter=11 stress="0.0009747061475647285 -1.6075304135343753e-16 -4.132177537354388e-16 -1.6075304135343753e-16 0.0009747061475650451 -1.3470280490847021e-15 -4.132177537354388e-16 -1.3470280490847021e-15 6.658094824950008e-05" pbc="T T T"
Si       9.10041312       4.79356311      10.28296341
Si       6.75457311       5.48440739      10.28296341
Si       7.32920442       3.10742821      10.28296341
Si       8.70706031       3.41583029       6.38353240
Si       8.14440113       5.83262028       6.38353240
Si       6.33272920       4.13694814       6.38353240
Si       8.69251048       2.65928683       1.99008243
Si       8.80686191       6.19829149       1.99008243
Si       5.68481826       4.52782040       1.99008243
Si       9.16649386       4.36393552       3.66049443
Si       7.09360115       5.75644879       3.66049443
Si       6.92409564       3.26501441       3.66049443
Si       8.33629029       6.56117368       8.81996367
Si       5.60583887       3.93885232       8.81996367
Si       9.24206149       2.88537271       8.81996367
Si       9.87833239       4.98967498       7.89824861
Si       6.19577562       6.06004931       7.89824861
Si       7.11008264       2.33567443       7.89824861
Si       8.90397967       8.09579722       7.16038281
Si       3.99297121       3.66317398       7.16038281
Si      10.28723978       1.62642752       7.16038281
Si       5.34723848       1.99618059       2.28069583
Si       3.32570082       3.63275407       2.28069583
Si       2.91915544       1.06376436       2.28069583
24
Lattice="7.724474223550337 -1.3021671812079622e-11 1.6442611771922206e-13 3.8622371117864485 6.689590908466184 -1.482616061135214e-13 3.862237111778729 2.22986363615138 10.408694444530187" Properties=species:S:1:pos:R:3 unique_starting_index=24 config_type=initial n_minim_iter=12 stress="0.00019095242478474114 -1.2405662272056327e-16 -4.615484332831606e-16 -1.2405662272056327e-16 0.00019095242478516387 -1.4965233190084587e-15 -4.615484332831606e-16 -1.4965233190084587e-15 -0.0011450202286211106" pbc="T T T"
Si       9.09338881       4.79039172      10.28025021
Si       6.75365234       5.47990986      10.28025021
Si       7.32638036       3.10887957      10.28025021
Si       8.71028321       3.42035449       6.38361990
Si       8.13169219       5.83314929       6.38361990
Si       6.33144611       4.12567737       6.38361990
Si       8.69641845       2.64520447       1.99706553
Si       8.80992419       6.20871706       1.99706553
Si       5.66707888       4.52525962       1.99706553
Si       9.17297395       4.36377021       3.64568340
Si       7.08332484       5.76214337       3.64568340
Si       6.91712272       3.25326757       3.64568340
Si       8.33509985       6.56323441       8.81948935
Si       5.59747002       3.93679101       8.81948935
Si       9.24085164       2.87915573       8.81948935
Si       9.87775359       4.98394011       7.89653110
Si       6.19385214       6.06241549       7.89653110
Si       7.10181579       2.33282556       7.89653110
Si       8.90110654       8.09754278       7.14894395
Si       3.98571665       3.65981300       7.14894395
Si      10.28659832       1.62182538       7.14894395
Si       5.33800697       1.99432977       2.27383418
Si       3.32832973       3.62568476       2.27383418
Si       2.92037349       1.06957572       2.27383418
24
Lattice="7.7161095498745835 -1.305932989638562e-11 1.6459499966825182e-13 3.858054774948604 6.682346888568593 -1.4858844347054077e-13 3.858054774940862 2.22744896285217 10.425242598368675" Properties=species:S:1:pos:R:3 unique_starting_index=24 config_type=initial n_minim_iter=13 stress="-0.00040694246325770627 -1.199976637278656e-16 -9.252831901907708e-17 -1.199976637278656e-16 -0.0004069424632572304 -1.4907799256243268e-15 -9.252831901907708e-17 -1.4907799256243268e-15 -0.0005784180760807133" pbc="T T T"
Si       9.08232893       4.78331074      10.29678928
Si       6.74858525       5.47387221      10.29678928
Si       7.31741331       3.10751017      10.29678928
Si       8.70597735       3.42050557       6.39628250
Si       8.11698494       5.82934477       6.39628250
Si       6.32536521       4.11484277       6.39628250
Si       8.69234814       2.63062741       2.00828860
Si       8.80785409       6.21248061       2.00828860
Si       5.64812526       4.52158510       2.00828860
Si       9.16848858       4.36323869       3.64676238
Si       7.06929850       5.75852468       3.64676238
Si       6.91054042       3.24292975       3.64676238
Si       8.32909149       6.55971305       8.83639879
Si       5.58679444       3.93334830       8.83639879
Si       9.23244156       2.87163176       8.83639879
Si       9.86857265       4.97793340       7.91117765
Si       6.18691522       6.05746792       7.91117765
Si       7.09283962       2.32929180       7.91117765
Si       8.89117249       8.09300303       7.15226438
Si       3.97788587       3.65347973       7.15226438
Si      10.27926914       1.61821035       7.15226438
Si       5.32735053       1.99029305       2.27447448
Si       3.32878917       3.61847437       2.27447448
Si       2.91802347       1.07357880       2.27447448
24
Lattice="7.709333485596341 -1.3158451124452277e-11 1.6505953631195421e-13 3.8546667428095684 6.676478644765909 -1.488013475880041e-13 3.8546667428017694 2.2254928815845747 10.435644974245156" Properties=species:S:1:pos:R:3 unique_starting_index=24 config_type=initial n_minim_iter=14 stress="-0.0007167456130657332 -1.2194911388078725e-16 -9.301203601076993e-17 -1.2194911388078725e-16 -0.0007167456130651512 -1.3802986143998258e-15 -9.301203601076993e-17 -1.3802986143998258e-15 0.00019099424940077268" pbc="T T T"
Si       9.07471069       4.77553444      10.30412213
Si       6.74557672       5.47116277      10.30412213
Si       7.30771189       3.10625942      10.30412213
Si       8.70226812       3.41994912       6.40342632
Si       8.10576933       5.82641070       6.40342632
Si       6.31996186       4.10659680       6.40342632
Si       8.68916411       2.61530234       2.02102593
Si       8.80916588       6.21738569       2.02102593
Si       5.62966931       4.52026860       2.02102593
Si       9.16180222       4.36691005       3.65385858
Si       7.05591005       5.75089845       3.65385858
Si       6.91028703       3.23514813       3.65385858
Si       8.32516496       6.55855382       8.84524810
Si       5.57620951       3.93052744       8.84524810
Si       9.22662484       2.86387537       8.84524810
Si       9.86062293       4.97426929       7.91959275
Si       6.18051117       6.05241532       7.91959275
Si       7.08686520       2.32627202       7.91959275
Si       8.88229684       8.08888800       7.14760306
Si       3.97233529       3.64785071       7.14760306
Si      10.27336718       1.61621792       7.14760306
Si       5.31908415       1.98659057       2.27597720
Si       3.32935275       3.61316671       2.27597720
Si       2.91556218       1.07672070       2.27597720
24
Lattice="7.708300671507447 -1.3309460743565453e-11 1.6553183791811792e-13 3.8541503357652522 6.675584201527468 -1.4926089393428879e-13 3.8541503357573665 2.2251947338383755 10.427711012191844" Properties=species:S:1:pos:R:3 unique_starting_index=24 config_type=initial n_minim_iter=15 stress="-0.0005219008761370333 1.9180196510194343e-16 -9.393537449437143e-17 1.9180196510194343e-16 -0.0005219008761365037 -1.4119273029726667e-15 -9.393537449437143e-17 -1.4119273029726667e-15 0.0005807219026614324" pbc="T T T"
Si       9.07542200       4.77030552      10.29060405
Si       6.74768381       5.47439325      10.29060405
Si       7.30179505       3.10646897      10.29060405
Si       8.70256223       3.42008271       6.39687593
Si       8.10344095       5.82659862       6.39687593
Si       6.31889768       4.10448642       6.39687593
Si       8.69009237       2.60372324       2.03089475
Si       8.81666391       6.22397914       2.03089475
Si       5.61814457       4.52346536       2.03089475
Si       9.15767260       4.37569247       3.66230318
Si       7.04830344       5.74293087       3.66230318
Si       6.91892483       3.23254439       3.66230318
Si       8.32694729       6.56288975       8.83521712
Si       5.56949768       3.92990301       8.83521712
Si       9.22845589       2.85837497       8.83521712
Si       9.85929071       4.97529916       7.91252435
Si       6.17821976       6.05074664       7.91252435
Si       7.08739040       2.32512194       7.91252435
Si       8.88018247       8.08869382       7.12911999
Si       3.97149500       3.64611670       7.12911999
Si      10.27322338       1.61635722       7.12911999
Si       5.31780823       1.98524598       2.27638749
Si       3.33012233       3.61273403       2.27638749
Si       2.91451929       1.07760353       2.27638749
24
Lattice="7.71173223573815 -1.3439417848323821e-11 1.6584093072793343e-13 3.8558661178807165 6.678556023325914 -1.4986322246949585e-13 3.855866117872757 2.226185341104478 10.408044090261999" Properties=species:S:1:pos:R:3 unique_starting_index=24 config_type=initial n_minim_iter=16 stress="-0.0001021368559280605 3.24959722315299e-16 -2.812589565992199e-16 3.24959722315299e-16 -0.00010213685592721216 -1.4464746339388452e-15 -2.812589565992199e-16 -1.4464746339388452e-15 0.00041397951223960807" pbc="T T T"
Si       9.08144792       4.76941228      10.26640990
Si       6.75230755       5.48005846      10.26640990
Si       7.30144009       3.10764064      10.26640990
Si       8.70529160       3.42076946       6.38193094
Si       8.10834465       5.82861894       6.38193094
Si       6.32155930       4.10772298       6.38193094
Si       8.69298640       2.60052533       2.03386669
Si       8.82484951       6.22808439       2.03386669
Si       5.61735965       4.52850166       2.03386669
Si       9.15797154       4.38384284       3.66617527
Si       7.04795866       5.73911458       3.66617527
Si       6.92926535       3.23415396       3.66617527
Si       8.33188621       6.56921630       8.81449154
Si       5.56841239       3.93101697       8.81449154
Si       9.23489694       2.85687811       8.81449154
Si       9.86347911       4.97901327       7.89611493
Si       6.17977217       6.05251685       7.89611493
Si       7.09194427       2.32558127       7.89611493
Si       8.88455342       8.09137652       7.10783215
Si       3.97384938       3.64856070       7.10783215
Si      10.27679276       1.61717416       7.10783215
Si       5.32291344       1.98684715       2.27556924
Si       3.32961464       3.61635469       2.27556924
Si       2.91506911       1.07535352       2.27556924
24
Lattice="7.7144039425402795 -1.353951625827345e-11 1.6621017561971442e-13 3.857201971281868 6.680869789287971 -1.5036060809231338e-13 3.857201971273852 2.2269565964251297 10.390567965555555" Properties=species:S:1:pos:R:3 unique_starting_index=24 config_type=initial n_minim_iter=17 stress="0.00015770892353390373 5.095859410968871e-16 -4.3101268166819704e-16 5.095859410968871e-16 0.00015770892353469983 -1.3857088813228616e-15 -4.3101268166819704e-16 -1.3857088813228616e-15 0.00010363706978314057" pbc="T T T"
Si       9.08572891       4.76959098      10.24655003
Si       6.75535570       5.48367656      10.24655003
Si       7.30212606       3.10847137      10.24655003
Si       8.70688529       3.42122769       6.36870071
Si       8.11249438       5.82977001       6.36870071
Si       6.32383100       4.11074122       6.36870071
Si       8.69418804       2.60031858       2.03444969
Si       8.82977115       6.22922841       2.03444969
Si       5.61925149       4.53219192       2.03444969
Si       9.15951117       4.38872874       3.66635138
Si       7.04830095       5.73800499       3.66635138
Si       6.93539855       3.23500518       3.66635138
Si       8.33532811       6.57352784       8.79692634
Si       5.56830095       3.93184197       8.79692634
Si       9.23958161       2.85636910       8.79692634
Si       9.86715343       4.98162305       7.88188339
Si       6.18101829       6.05439401       7.88188339
Si       7.09503895       2.32572186       7.88188339
Si       8.88918127       8.09335133       7.09153904
Si       3.97516863       3.65158113       7.09153904
Si      10.27886078       1.61680645       7.09153904
Si       5.32838868       1.98918908       2.27465056
Si       3.32752056       3.61992541       2.27465056
Si       2.91569553       1.07175463       2.27465056
24
Lattice="7.7161169464793655 -1.3759164430655882e-11 1.669545768993947e-13 3.8580584732516017 6.6823532942158925 -1.5092669490940978e-13 3.8580584732434593 2.227451098067695 10.358111101369092" Properties=species:S:1:pos:R:3 unique_starting_index=24 config_type=initial n_minim_iter=18 stress="0.0003870110596036656 7.130098847606725e-17 -5.552330618646519e-16 7.130098847606725e-17 0.00038701105960488953 -1.5087538611058195e-15 -5.552330618646519e-16 -1.5087538611058195e-15 -0.00037512313055698747" pbc="T T T"
Si       9.08919489       4.76838260      10.21119438
Si       6.75809521       5.48728238      10.21119438
Si       7.30105958       3.10904095      10.21119438
Si       8.70651373       3.42109782       6.34343839
Si       8.11621864       5.82951316       6.34343839
Si       6.32561732       4.11409494       6.34343839
Si       8.69119381       2.59885838       2.03706539
Si       8.83595884       6.22736544       2.03706539
Si       5.62119704       4.53848210       2.03706539
Si       9.16196966       4.39603131       3.66385969
Si       7.04417351       5.73648283       3.66385969
Si       6.94220652       3.23219179       3.66385969
Si       8.33869140       6.57911257       8.76507417
Si       5.56520881       3.93196230       8.76507417
Si       9.24444948       2.85363106       8.76507417
Si       9.87098461       4.98436935       7.85586861
Si       6.18015034       6.05633876       7.85586861
Si       7.09721473       2.32399782       7.85586861
Si       8.89661649       8.09478092       7.06015808
Si       3.97363896       3.65730543       7.06015808
Si      10.27809423       1.61261957       7.06015808
Si       5.33916867       1.99429217       2.27332773
Si       3.31942416       3.62670962       2.27332773
Si       2.91558143       1.06135084       2.27332773
24
Lattice="7.708488019182496 -1.3810848148022937e-11 1.6730929532413454e-13 3.854244009603211 6.675746449373154 -1.5152752816134107e-13 3.85424400959504 2.2252488164534303 10.364183884993551" Properties=species:S:1:pos:R:3 unique_starting_index=24 config_type=initial n_minim_iter=19 stress="-0.00020703585189740418 -6.244926618886999e-18 -5.999292838544111e-16 -6.244926618886999e-18 -0.00020703585189591207 -1.5254274087734644e-15 -5.999292838544111e-16 -1.5254274087734644e-15 -0.0001008544854093863" pbc="T T T"
Si       9.07885058       4.76437053      10.22022753
Si       6.75148406       5.48032998      10.22022753
Si       7.29512826       3.10679173      10.22022753
Si       8.69968584       3.41863425       6.34579478
Si       8.10650824       5.82483182       6.34579478
Si       6.31926882       4.10802617       6.34579478
Si       8.68189616       2.59411113       2.04233970
Si       8.82946105       6.22168706       2.04233970
Si       5.61410569       4.53569404       2.04233970
Si       9.15855652       4.39193503       3.66292138
Si       7.03416971       5.73557510       3.66292138
Si       6.93273668       3.22398211       3.66292138
Si       8.33177956       6.57317164       8.77203221
Si       5.55855187       3.92894694       8.77203221
Si       9.23513148       2.84937366       8.77203221
Si       9.86295623       4.97933611       7.86084002
Si       6.17326559       6.05190259       7.86084002
Si       7.08924109       2.32025353       7.86084002
Si       8.89061606       8.08870870       7.05961898
Si       3.96664002       3.65514501       7.05961898
Si      10.26820682       1.60763852       7.05961898
Si       5.33664112       1.99453934       2.27447654
Si       3.31284496       3.62439711       2.27447654
Si       2.91324480       1.05680934       2.27447654
24
Lattice="7.709134592832397 -1.3842035432448954e-11 1.679810698312445e-13 3.854567296428189 6.676306398579374 -1.5164849673097935e-13 3.854567296420002 2.2254354661888263 10.364321027379193" Properties=species:S:1:pos:R:3 unique_starting_index=24 config_type=initial n_minim_iter=20 stress="-3.952861873587607e-05 1.6296308877987544e-16 -5.829624670145992e-16 1.6296308877987544e-16 -3.952861873427766e-05 -1.6770837412365725e-15 -5.829624670145992e-16 -1.6770837412365725e-15 -1.1445389580196883e-06" pbc="T T T"
Si       9.07940205       4.76458489      10.22108545
Si       6.75231584       5.48070038      10.22108545
Si       7.29568474       3.10732686      10.22108545
Si       8.70087097       3.41903071       6.34579049
Si       8.10686549       5.82565994       6.34579049
Si       6.31966617       4.10792149       6.34579049
Si       8.68053182       2.59342050       2.04160537
Si       8.83203447       6.22085083       2.04160537
Si       5.61483633       4.53834081       2.04160537
Si       9.15965658       4.39279063       3.66121116
Si       7.03417185       5.73609998       3.66121116
Si       6.93357419       3.22372153       3.66121116
Si       8.33221667       6.57403041       8.77266990
Si       5.55888274       3.92889610       8.77266990
Si       9.23630321       2.84968562       8.77266990
Si       9.86322399       4.98001674       7.86176479
Si       6.17383541       6.05179417       7.86176479
Si       7.09034322       2.32080122       7.86176479
Si       8.89147894       8.09053222       7.06080740
Si       3.96592251       3.65498053       7.06080740
Si      10.27000117       1.60709938       7.06080740
Si       5.33782300       1.99245082       2.27395488
Si       3.31470930       3.62646491       2.27395488
Si       2.91116844       1.05739000       2.27395488
24
Lattice="7.707179675286606 -1.4085330625737076e-11 1.689391917297973e-13 3.8535898376555044 6.674613390322297 -1.5153674503483638e-13 3.8535898376471796 2.224871130103053 10.359050976153426" Properties=species:S:1:pos:R:3 unique_starting_index=24 config_type=initial n_minim_iter=21 stress="0.0003661076329017165 1.6979553639399185e-16 -2.9729844225058447e-16 1.6979553639399185e-16 0.00036610763290411655 -1.7496232081432435e-15 -2.9729844225058447e-16 -1.7496232081432435e-15 0.0006298497090204999" pbc="T T T"
Si       9.07662375       4.76389331      10.21937788
Si       6.75039408       5.47864009      10.21937788
Si       7.29452004       3.10669271      10.21937788
Si       8.70016776       3.41736793       6.33689979
Si       8.10474726       5.82588233       6.33689979
Si       6.31662285       4.10597585       6.33689979
Si       8.67235419       2.58948701       2.04349412
Si       8.83561996       6.21573553       2.04349412
Si       5.61356373       4.54400358       2.04349412
Si       9.15789655       4.39222723       3.66390851
Si       7.03162995       5.73485744       3.66390851
Si       6.93201137       3.22214145       3.66390851
Si       8.33001768       6.57392613       8.76827262
Si       5.55616271       3.92704386       8.76827262
Si       9.23535748       2.84825613       8.76827262
Si       9.85864986       4.97939981       7.85833835
Si       6.17274693       6.04814132       7.85833835
Si       7.09014109       2.32168499       7.85833835
Si       8.88956143       8.08876866       7.05152849
Si       3.96449873       3.65420170       7.05152849
Si      10.26747772       1.60625576       7.05152849
Si       5.34126267       1.98881009       2.27254116
Si       3.31418751       3.63126412       2.27254116
Si       2.90531818       1.05453852       2.27254116
