10
Lattice="3.744533535334166 -0.32862543346980916 0.9991043791755608 1.6240663873722607 4.74738270426148 2.1814799271498235 1.8704142252635407 5.270514314443969 11.8887446275751" Properties=species:S:1:pos:R:3 unique_starting_index=160 config_type=initial n_minim_iter=1 energy=-1627.7302477409078 free_energy=-1627.7302477409078 pbc="T T T"
Si       4.61852600       9.46337399      12.85397143
Si       6.75089042       8.58723209      12.01935650
Si       3.52421531       0.82963161       3.86591759
Si       4.42759881       1.71275700       6.04269019
Si       2.39644443       3.70747611       4.96507216
Si       3.95943910       2.47986372       8.23741996
Si       4.00028060       3.54478648       3.20115220
Si       3.74321872       6.67873595      11.76024037
Si       2.11818170       2.03036167       2.18515479
Si       3.16325500       4.45858565       7.08817389
10
Lattice="3.7443863706338583 -0.3353421366099972 0.9961232244456536 1.6129104557353613 4.73912233567414 2.181910410861029 1.848878487417473 5.2622611431074855 11.895561897554554" Properties=species:S:1:pos:R:3 unique_starting_index=160 config_type=initial n_minim_iter=2 stress="-0.0003568443359193964 -0.00041114127908430673 -0.0005023099123958658 -0.00041114127908430673 -0.0005088118574675725 -8.560515131212528e-05 -0.0005023099123958658 -8.560515131212528e-05 -2.5447252203130466e-05" pbc="T T T"
Si       4.58851097       9.44445438      12.85889556
Si       6.72438957       8.56491995      12.02252124
Si       3.51819768       0.82276946       3.86623469
Si       4.42037306       1.70215689       6.04169852
Si       2.38373115       3.69967823       4.96567427
Si       3.94664053       2.47072345       8.23973446
Si       3.99004525       3.53343404       3.19933478
Si       3.71893815       6.66523839      11.76628330
Si       2.11220166       2.02490555       2.18368782
Si       3.14750136       4.44881937       7.09132968
10
Lattice="3.755301099625109 -0.342424767721706 1.0011386350702716 1.6091427648942227 4.740203750343058 2.191425859810533 1.8535637892838213 5.271266938750081 11.923715267664521" Properties=species:S:1:pos:R:3 unique_starting_index=160 config_type=initial n_minim_iter=3 stress="0.0011343721838855479 -0.0011315489795755017 7.902351868038829e-06 -0.0011315489795755017 0.0011452120136233087 0.0007575200169660417 7.902351868038829e-06 0.0007575200169660417 0.0027398849655650326" pbc="T T T"
Si       4.59488874       9.44671415      12.89244545
Si       6.74057836       8.56181753      12.06182340
Si       3.52482093       0.82118574       3.88233835
Si       4.44097040       1.69427173       6.05451823
Si       2.38311540       3.70453413       4.97544290
Si       3.95709301       2.47231944       8.26101448
Si       3.99251230       3.53010204       3.21017937
Si       3.72434312       6.67083990      11.80193286
Si       2.11479348       2.02652862       2.18597333
Si       3.15017867       4.45328125       7.11550377
10
Lattice="3.7558542021071792 -0.3429710266991296 1.0002521361456653 1.6093717626646666 4.7317690165466315 2.1841610905698743 1.8575560631900336 5.257140513759207 11.891711203761696" Properties=species:S:1:pos:R:3 unique_starting_index=160 config_type=initial n_minim_iter=4 stress="-0.0009661850423004328 -0.0011047768312753743 0.00025068664877069924 -0.0011047768312753743 -0.0015184188060301527 0.0006759106971776147 0.00025068664877069924 0.0006759106971776147 -0.0004775318562171848" pbc="T T T"
Si       4.60126045       9.42230953      12.85514080
Si       6.74869240       8.53885315      12.03263427
Si       3.52334448       0.81917131       3.87731999
Si       4.44885476       1.68428890       6.03761270
Si       2.38215365       3.69966491       4.95863098
Si       3.95868262       2.46522350       8.24024852
Si       3.99083210       3.52272506       3.20054216
Si       3.72739064       6.65383761      11.77373410
Si       2.11511838       2.02439285       2.17648844
Si       3.15038727       4.44421689       7.09943691
10
Lattice="3.7613325813792633 -0.33947716605586825 0.9955711944222518 1.6177674053248965 4.736811754013907 2.1696400563355884 1.8556503915412663 5.241785803385606 11.866789546739204" Properties=species:S:1:pos:R:3 unique_starting_index=160 config_type=initial n_minim_iter=5 stress="0.0009857587852803583 -6.365782123501012e-05 -0.0007739398535992683 -6.365782123501012e-05 -0.0003854555069734174 -0.0003180568913354893 -0.0007739398535992683 -0.0003180568913354893 -0.000587977237706585" pbc="T T T"
Si       4.61386365       9.41339327      12.81522956
Si       6.76473560       8.53357826      11.99695549
Si       3.52402745       0.81960639       3.87084071
Si       4.45785293       1.67763587       6.02169637
Si       2.38483292       3.70285324       4.94076836
Si       3.95922252       2.45845660       8.22131612
Si       3.99821038       3.52758646       3.18365414
Si       3.73086474       6.64221143      11.74553833
Si       2.11985738       2.02806316       2.16542762
Si       3.15345577       4.44081503       7.08063953
10
Lattice="3.750840229053969 -0.3326714014870884 1.003189188684295 1.6305177385634138 4.755116699032319 2.1597904487498845 1.883706347581912 5.233336434219102 11.865768709481829" Properties=species:S:1:pos:R:3 unique_starting_index=160 config_type=initial n_minim_iter=6 stress="-0.0009340812452571034 0.0019062520397885487 0.001220763637452861 0.0019062520397885487 0.0011990258662822643 -0.0005217950381518926 0.001220763637452861 -0.0005217950381518926 0.0005353680438358428" pbc="T T T"
Si       4.66013661       9.42241060      12.80393878
Si       6.79494512       8.54647931      11.99939742
Si       3.51362062       0.82761991       3.88498167
Si       4.47288664       1.67294475       6.02895304
Si       2.38962746       3.72494928       4.93335879
Si       3.96157454       2.45859360       8.22402662
Si       3.99528579       3.54381422       3.17917112
Si       3.75737921       6.63901500      11.74271156
Si       2.12247169       2.04178017       2.16403433
Si       3.16365934       4.44603374       7.08088271
10
Lattice="3.7886118694933866 -0.3670622939564668 0.9825978098718795 1.605788593329408 4.783434260955789 2.1148123941470978 1.818196936926328 5.217796762705264 11.750446156307287" Properties=species:S:1:pos:R:3 unique_starting_index=160 config_type=initial n_minim_iter=7 stress="-0.0003892200686936702 -0.0005806433815935965 -0.0016099445892757737 -0.0005806433815935965 0.003885585292950948 -0.00047403310328017446 -0.0016099445892757737 -0.00047403310328017446 0.00014436049861048545" pbc="T T T"
Si       4.66023791       9.39657954      12.64012992
Si       6.79400364       8.48664488      11.87624385
Si       3.47857318       0.82946996       3.87994370
Si       4.56557554       1.59811938       5.96338374
Si       2.32495246       3.80493551       4.84901265
Si       3.92064065       2.43410692       8.11269449
Si       3.96442909       3.53005689       3.10760312
Si       3.70350228       6.59063227      11.60694980
Si       2.11763927       2.06898603       2.13325600
Si       3.11339996       4.42150593       7.00335943
10
Lattice="3.8104742419023068 -0.3661230480818735 0.9877826721116212 1.6157963712672083 4.757856679416855 2.1202129037320443 1.8426945246491337 5.194729422362879 11.758624431735269" Properties=species:S:1:pos:R:3 unique_starting_index=160 config_type=initial n_minim_iter=8 stress="-8.913444857362909e-05 0.00018747013838669787 -0.0008546094752058919 0.00018747013838669787 -0.0007729522644576288 0.0002357848705797758 -0.0008546094752058919 0.0002357848705797758 0.0013361157672222002" pbc="T T T"
Si       4.71287145       9.34572687      12.65477040
Si       6.84603098       8.43619818      11.89386061
Si       3.49498547       0.83171625       3.89104223
Si       4.61002351       1.58908434       5.97742922
Si       2.33434337       3.79971919       4.85378020
Si       3.94749674       2.42545001       8.11522171
Si       3.98484348       3.50860767       3.11593071
Si       3.73981170       6.55510236      11.61181284
Si       2.12894850       2.06151493       2.14380030
Si       3.13667149       4.39398179       7.00870255
10
Lattice="3.826683257308201 -0.37186367612263826 0.9937653782656779 1.6187635619728462 4.750214827662428 2.1187122199460386 1.869294728051761 5.188558837961038 11.728152352021889" Properties=species:S:1:pos:R:3 unique_starting_index=160 config_type=initial n_minim_iter=9 stress="-0.00016061868290876826 -0.0005858565082869141 0.0008071864776473175 -0.0005858565082869141 -0.000888005534660205 -1.7470738080749795e-05 0.0008071864776473175 -1.7470738080749795e-05 -0.0006879707112579456" pbc="T T T"
Si       4.74897137       9.32827309      12.62992120
Si       6.87952037       8.41562661      11.86984348
Si       3.51483436       0.82843457       3.88795248
Si       4.63831647       1.58525709       5.97776884
Si       2.34488625       3.79534648       4.84638830
Si       3.97753538       2.41699727       8.09783435
Si       4.00158992       3.49706872       3.12203547
Si       3.77479169       6.54725970      11.58053825
Si       2.13450690       2.05463681       2.14919596
Si       3.15961378       4.38104018       6.98933113
10
Lattice="3.8700343848939296 -0.37665878172427947 0.98909025599137 1.6332537338195747 4.7474248745658265 2.1009627615730118 1.8858474081003296 5.1719670226245675 11.660888108899725" Properties=species:S:1:pos:R:3 unique_starting_index=160 config_type=initial n_minim_iter=10 stress="0.0009541320391746655 0.000539569913892147 0.0022541885573426714 0.000539569913892147 -0.0014513739313402401 0.0004313063612000404 0.0022541885573426714 0.0004313063612000404 -0.0013114447545739196" pbc="T T T"
Si       4.83769454       9.28041069      12.54309126
Si       6.95597528       8.36435999      11.79250432
Si       3.52914533       0.84604061       3.89342381
Si       4.73270942       1.56305575       5.96117800
Si       2.33536448       3.83250014       4.79973710
Si       4.00862033       2.40969694       8.03809561
Si       4.02879916       3.48307991       3.11337657
Si       3.82522399       6.53133805      11.50288690
Si       2.14024925       2.06048250       2.14410174
Si       3.18602126       4.35855506       6.93662921
10
Lattice="3.853213597935325 -0.36965844468651216 0.9807499064879412 1.6280375696720475 4.746126356753378 2.107795155645981 1.8532072653030605 5.18210653723636 11.692748107069407" Properties=species:S:1:pos:R:3 unique_starting_index=160 config_type=initial n_minim_iter=11 stress="0.0006829683811306711 0.0006155770320195954 0.001099550150494666 0.0006155770320195954 -0.0009384253031885523 0.0007397164496750494 0.001099550150494666 0.0007397164496750494 -0.0009520424205976009" pbc="T T T"
Si       4.78536955       9.29094916      12.57424176
Si       6.89965726       8.38356731      11.80135496
Si       3.51797825       0.85088151       3.89170194
Si       4.68497772       1.58133831       5.96819967
Si       2.32448932       3.82006586       4.81089191
Si       3.98411842       2.41801255       8.05748503
Si       4.01814766       3.48831700       3.12643688
Si       3.79196858       6.55587933      11.53318080
Si       2.12465526       2.05553310       2.14505728
Si       3.16769462       4.37051233       6.94709755
10
Lattice="3.842477216796134 -0.3771648340109083 0.9705830593227275 1.6129727344244484 4.751078500782004 2.0905668352768383 1.8033281201914007 5.156569183854532 11.690613040609696" Properties=species:S:1:pos:R:3 unique_starting_index=160 config_type=initial n_minim_iter=12 stress="0.0002413930154665241 -0.0004502471729672431 -5.259609446148601e-05 -0.0004502471729672431 0.0005815735057160808 -0.0006161028969543644 -5.259609446148601e-05 -0.0006161028969543644 0.00027621898874577146" pbc="T T T"
Si       4.73456022       9.26215113      12.54710728
Si       6.84182323       8.35476146      11.76821688
Si       3.48982896       0.84655502       3.89596256
Si       4.66557785       1.55531237       5.95917728
Si       2.28997536       3.82335372       4.78939541
Si       3.94326266       2.39654187       8.04842329
Si       3.99007718       3.48212325       3.11380435
Si       3.74098705       6.53214311      11.52217774
Si       2.10433473       2.05582989       2.13113550
Si       3.13045384       4.35974061       6.93436954
10
Lattice="3.832211030083521 -0.36951029625398657 0.9454162418844648 1.6061828255324369 4.7673937799042525 2.086114649346259 1.73390511083416 5.188158880968437 11.682883546022344" Properties=species:S:1:pos:R:3 unique_starting_index=160 config_type=initial n_minim_iter=13 stress="-0.0007658121611903941 6.3851547040605e-05 -0.0015460539240034943 6.3851547040605e-05 0.0005636877139579137 0.00040860995188205906 -0.0015460539240034943 0.00040860995188205906 0.0010445725604829542" pbc="T T T"
Si       4.69018688       9.29640693      12.52532420
Si       6.78434372       8.39296641      11.71985350
Si       3.45074952       0.88034211       3.89653700
Si       4.64497861       1.56699680       5.93954739
Si       2.24402098       3.86213385       4.76183307
Si       3.88527286       2.42137252       8.01526699
Si       3.96165088       3.49441623       3.10992894
Si       3.68167573       6.56106628      11.50065318
Si       2.07726584       2.07338630       2.11678983
Si       3.08747213       4.38679995       6.91470912
10
Lattice="3.8396178877384624 -0.36394912675060453 0.9467498412946401 1.6164537883447367 4.758437113452586 2.08605068778847 1.7533956526805108 5.1826839487639615 11.66710616415427" Properties=species:S:1:pos:R:3 unique_starting_index=160 config_type=initial n_minim_iter=14 stress="-0.0008830237413117203 0.0001713107668503216 0.0004527651022960653 0.0001713107668503216 -0.0005614871125405853 -0.0005784860758837457 0.0004527651022960653 -0.0005784860758837457 -0.00028265625678930905" pbc="T T T"
Si       4.72432082       9.28908733      12.51883769
Si       6.82184838       8.39548491      11.69467173
Si       3.46361882       0.88883210       3.89858382
Si       4.65347904       1.57499946       5.94231503
Si       2.25300107       3.85106209       4.75269009
Si       3.90271326       2.41667536       8.00361625
Si       3.97614993       3.48706827       3.12379335
Si       3.71063735       6.54391734      11.48232366
Si       2.07687939       2.07144905       2.11146379
Si       3.10716720       4.38671152       6.90462733
10
Lattice="3.8560503444212006 -0.36487266461364437 0.9385021782622748 1.616480531005413 4.763394183630821 2.091895704785429 1.7402333934959915 5.21325038632515 11.654239692026609" Properties=species:S:1:pos:R:3 unique_starting_index=160 config_type=initial n_minim_iter=15 stress="0.000731698004149669 -0.0004313250043676116 -2.9611544936082015e-06 -0.0004313250043676116 0.0003334763981263629 0.0007052741417012489 -2.9611544936082015e-06 0.0007052741417012489 -2.819364192914652e-05" pbc="T T T"
Si       4.72931456       9.31437378      12.51038834
Si       6.83438082       8.42118433      11.67965703
Si       3.46757929       0.90185054       3.89428130
Si       4.67086286       1.58773304       5.93218705
Si       2.24439722       3.86913105       4.74708525
Si       3.90349252       2.43354123       7.98744655
Si       3.98427239       3.48864117       3.12635263
Si       3.70977102       6.56868984      11.46684313
Si       2.07637287       2.07983349       2.10693238
Si       3.10673353       4.40191944       6.89504148
10
Lattice="3.855406486189195 -0.3497237223309227 0.921498468858778 1.6290749657873347 4.765661002497023 2.079247935430102 1.7100272535637633 5.205366738321297 11.641230854481613" Properties=species:S:1:pos:R:3 unique_starting_index=160 config_type=initial n_minim_iter=16 stress="0.0013068653701172955 0.0005045195212777385 -0.00013190148915771897 0.0005045195212777385 0.000711101946806439 -0.0002352354993490457 -0.00013190148915771897 -0.0002352354993490457 0.000739868037915711" pbc="T T T"
Si       4.73274487       9.30086059      12.47572941
Si       6.83980261       8.44312845      11.63123971
Si       3.44839268       0.91671796       3.88789441
Si       4.65628544       1.60689420       5.91693525
Si       2.22601228       3.87591700       4.72840197
Si       3.87726921       2.43165087       7.97959515
Si       3.98859565       3.48956491       3.12088413
Si       3.70022860       6.56113793      11.43748636
Si       2.06659860       2.09666752       2.07655789
Si       3.09691955       4.40870332       6.87161002
10
Lattice="3.8446141925838826 -0.34351396970888026 0.9115935531004677 1.6268372899612542 4.766874644491133 2.0783703312296256 1.6849270485296057 5.215806608451516 11.63342874968818" Properties=species:S:1:pos:R:3 unique_starting_index=160 config_type=initial n_minim_iter=17 stress="-0.0008270195312185346 -0.00014838099251853729 2.496500346278496e-05 -0.00014838099251853729 -9.080073043470603e-05 -5.7332226752457996e-05 2.496500346278496e-05 -5.7332226752457996e-05 -0.00017743900463080883" pbc="T T T"
Si       4.71204671       9.30670750      12.46167125
Si       6.81928411       8.47182624      11.61661411
Si       3.42324225       0.92143050       3.87628872
Si       4.62729805       1.62734759       5.90526927
Si       2.21069423       3.87924798       4.72569655
Si       3.85259272       2.43706592       7.98076785
Si       3.97750007       3.48798648       3.11732722
Si       3.67699981       6.56432399      11.42058178
Si       2.05895312       2.11060466       2.05782897
Si       3.07899191       4.41760722       6.86290708
10
Lattice="3.8622897782255645 -0.33778429506706925 0.8926357590637887 1.6330382263091745 4.762082070408722 2.0681178086758343 1.6539623810302262 5.218654382041027 11.588146908057071" Properties=species:S:1:pos:R:3 unique_starting_index=160 config_type=initial n_minim_iter=18 stress="-0.0009670753183406576 -0.00044887548576611635 0.00028230152146239024 -0.00044887548576611635 -0.0015959705597811806 -0.00046028857496378215 0.00028230152146239024 -0.00046028857496378215 -0.001167562847058288" pbc="T T T"
Si       4.74047012       9.28417561      12.39424886
Si       6.83751272       8.47457613      11.55298573
Si       3.38785251       0.93996157       3.86187612
Si       4.64313740       1.64225839       5.87980024
Si       2.19089861       3.90001363       4.68903518
Si       3.85355904       2.44226504       7.94564285
Si       3.97773613       3.47205070       3.11264601
Si       3.66649431       6.55135385      11.35385655
Si       2.05464118       2.13130294       2.03376517
Si       3.07161333       4.41419713       6.82538244
10
Lattice="3.8581199257080265 -0.3297180210281664 0.8884684006590595 1.6369237082004682 4.766106930753513 2.0773299773554506 1.647279056034246 5.241819420810709 11.605970828488221" Properties=species:S:1:pos:R:3 unique_starting_index=160 config_type=initial n_minim_iter=19 stress="-0.0007106089174169666 -0.00029088070124289517 3.6417270290696435e-05 -0.00029088070124289517 -0.0009180616778347209 -1.4882510013818103e-05 3.6417270290696435e-05 -1.4882510013818103e-05 -0.0002733713328652313" pbc="T T T"
Si       4.73591190       9.31215211      12.41497603
Si       6.83468440       8.51361099      11.57278952
Si       3.37324955       0.94713188       3.85764566
Si       4.62201386       1.66726274       5.88145079
Si       2.19666249       3.90125866       4.69657533
Si       3.85824374       2.46066031       7.96229736
Si       3.97786489       3.47862940       3.12264568
Si       3.65817895       6.57497832      11.37045871
Si       2.05621466       2.14058014       2.03048367
Si       3.07018303       4.43293017       6.83909695
10
Lattice="3.859915073255538 -0.31838634161696094 0.8786571939658706 1.6460736886321776 4.772469507710966 2.080469592473552 1.6353808492315498 5.265052498114279 11.604596329129897" Properties=species:S:1:pos:R:3 unique_starting_index=160 config_type=initial n_minim_iter=20 stress="0.00016088139409035115 1.1747719385828132e-05 -2.7413798038904457e-05 1.1747719385828132e-05 -0.00012651671758454711 6.872513374048657e-05 -2.7413798038904457e-05 6.872513374048657e-05 0.0003762265655267452" pbc="T T T"
Si       4.74333400       9.33918364      12.40928045
Si       6.84643361       8.55990632      11.56373213
Si       3.35464647       0.95955690       3.85012199
Si       4.60709210       1.69591223       5.87061968
Si       2.19748157       3.90932206       4.69133030
Si       3.86208136       2.47866736       7.96576998
Si       3.98418247       3.48474038       3.12877319
Si       3.65507223       6.59808790      11.36252501
Si       2.05668945       2.15627384       2.01596119
Si       3.06944923       4.45481011       6.83739349
10
Lattice="3.8600373881572296 -0.2904141482528805 0.8533369034443248 1.6682786229365731 4.797459068994386 2.083294856069792 1.6078133829065437 5.331125527821549 11.57614158178933" Properties=species:S:1:pos:R:3 unique_starting_index=160 config_type=initial n_minim_iter=21 stress="0.001577772659857 0.00040952972653589856 -0.00011571385117876055 0.00040952972653589856 0.0017171450747942812 0.00013232399104246093 -0.00011571385117876055 0.00013232399104246093 0.0009274770284972782" pbc="T T T"
Si       4.76141043       9.43016773      12.36971938
Si       6.87230198       8.69050126      11.51905439
Si       3.29772171       0.98739317       3.82588461
Si       4.56422947       1.76755380       5.82444022
Si       2.19673414       3.94019339       4.67098364
Si       3.87339237       2.52571088       7.95853186
Si       4.00155643       3.50518150       3.13537214
Si       3.65208527       6.66995772      11.31426165
Si       2.05827773       2.19799118       1.97957922
Si       3.06282789       4.51484325       6.81955264
