10
Lattice="6.810083561862532 -4.0619497181988953e-16 -7.035503289710532e-16 4.309165551133646e-16 7.224554591023301 -1.3096207244594762e-14 4.309165551133635e-16 -3.612277295511639 6.25664780685368" Properties=species:S:1:pos:R:3 unique_starting_index=146 config_type=initial n_minim_iter=1 energy=-1621.8490664132394 free_energy=-1621.8490664132394 pbc="T T T"
Si       0.67418526       4.06501505       4.97744684
Si       0.67418526       5.89036518       0.24751808
Si       0.67418526       0.88145165       1.03168288
Si       3.03152526      -0.45120539       5.49410316
Si       3.03152526       1.37135830       3.90035155
Si       3.03152526      -0.92015293       3.11884090
Si       6.15745521       0.66987596       2.94067679
Si       6.15745521      -1.40051448       4.20617981
Si       6.15745521       0.73063850       5.36643902
Si       1.21571899      -0.00000000       4.17109854
10
Lattice="6.7929420861135545 -4.041643097796992e-16 -7.00033119144443e-16 4.2951521986583226e-16 7.1831279501556065 -2.5557064736077498e-15 4.2951521986583e-16 -3.5915639750778006 6.220771283468799" Properties=species:S:1:pos:R:3 unique_starting_index=146 config_type=initial n_minim_iter=2 stress="-0.0026702477421233534 -1.1955732445672401e-17 7.52091008532738e-18 -1.1955732445672401e-17 -0.0018093932854545977 5.758125346862919e-17 7.52091008532738e-18 5.758125346862919e-17 -0.0018093932854545275" pbc="T T T"
Si       0.67673401       4.04133846       4.94783504
Si       0.67673401       5.85584558       0.24695199
Si       0.67673401       0.87750788       1.02598425
Si       3.02268028      -0.44840866       5.46544913
Si       3.02268028       1.36585814       3.87638001
Si       3.02268028      -0.91744949       3.09971343
Si       6.14109722       0.66709786       2.92384113
Si       6.14109722      -1.39299222       4.18112703
Si       6.14109722       0.72589435       5.33657441
Si       1.20614270      -0.00000000       4.14718086
10
Lattice="6.838111426416307 -4.0598424037218873e-16 -7.031853313968868e-16 4.279840142119895e-16 7.14191058588749 3.386224532751998e-14 4.2798401421198285e-16 -3.5709552929437742 6.185075998935553" Properties=species:S:1:pos:R:3 unique_starting_index=146 config_type=initial n_minim_iter=3 stress="0.0027814078788651387 -3.800680794287118e-17 4.203835511360184e-18 -3.800680794287118e-17 -0.002275074978231731 -3.474481536028568e-19 4.203835511360184e-18 -3.474481536028568e-19 -0.0022750749782316135" pbc="T T T"
Si       0.69721305       4.01721375       4.91436940
Si       0.69721305       5.81831716       0.24888214
Si       0.69721305       0.87733497       1.02182446
Si       3.03785401      -0.44528204       5.44545015
Si       3.03785401       1.36758389       3.84797648
Si       3.03785401      -0.92230186       3.07672537
Si       6.17818116       0.66762507       2.90618340
Si       6.17818116      -1.38793918       4.15380403
Si       6.17818116       0.72031411       5.31016457
Si       1.19225476      -0.00000000       4.12338400
10
Lattice="6.7939889265331415 -4.030416897867464e-16 -6.980886842790682e-16 4.271243234729051e-16 7.121954998178099 1.321151162233333e-13 4.271243234728862e-16 -3.5609774990891623 6.167793953031721" Properties=species:S:1:pos:R:3 unique_starting_index=146 config_type=initial n_minim_iter=4 stress="-0.0004457958229421269 1.0997588644003978e-17 3.0737446484932896e-17 1.0997588644003978e-17 -8.894221820724234e-05 4.0970667842104674e-17 3.0737446484932896e-17 4.0970667842104674e-17 -8.894221820733758e-05" pbc="T T T"
Si       0.72740904       4.00531829       4.88770150
Si       0.72740904       5.79119201       0.25523582
Si       0.72740904       0.88642219       1.02485664
Si       3.00582164      -0.44235359       5.45501255
Si       3.00582164       1.38437874       3.82337713
Si       3.00582164      -0.94202515       3.05719823
Si       6.12935473       0.67652565       2.89340755
Si       6.12935473      -1.39347589       4.13520178
Si       6.12935473       0.71695023       5.30697859
Si       1.14465634      -0.00000000       4.11186264
10
Lattice="6.723323771740029 -4.294349336060991e-16 -7.438031235505284e-16 3.4727545159371214e-16 6.354602372938503 1.4907560613151657e-12 3.472754515932798e-16 -3.177301186470541 5.503247085912884" Properties=species:S:1:pos:R:3 unique_starting_index=146 config_type=initial n_minim_iter=5 stress="0.018432399381230275 -1.5568741688219815e-16 4.9026982664670967e-17 -1.5568741688219815e-16 0.02764043966626654 -1.0318137423499875e-17 4.9026982664670967e-17 -1.0318137423499875e-17 0.027640439666267086" pbc="T T T"
Si       1.31205908       3.57598618       4.16494713
Si       1.31205908       4.99625811       0.32387864
Si       1.31205908       0.95965926       1.01442131
Si       2.71795613      -0.33402595       5.19849588
Si       2.71795613       1.49174128       3.19327411
Si       2.71795613      -1.15771533       2.61472419
Si       5.85621484       0.79478860       2.44730747
Si       5.85621484      -1.45526505       3.59128624
Si       5.85621484       0.66047645       4.96790047
Si       0.75407064      -0.00000000       3.66883139
10
Lattice="6.719773320512698 -4.465132239327853e-16 -7.733835901025792e-16 3.266367765246223e-16 6.320563308015122 1.5373242827938942e-12 3.2663677652414825e-16 -3.1602816540088914 5.473768390968141" Properties=species:S:1:pos:R:3 unique_starting_index=146 config_type=initial n_minim_iter=6 stress="0.0159814723765176 -1.3182930000992275e-16 -2.5139011799077792e-17 -1.3182930000992275e-16 0.02303202423183235 -7.744047698674218e-17 -2.5139011799077792e-17 -7.744047698674218e-17 0.02303202423183284" pbc="T T T"
Si       1.33520415       3.55718754       4.13431744
Si       1.33520415       4.96211181       0.32599489
Si       1.33520415       0.96154560       1.01345606
Si       2.70598582      -0.32970861       5.18379862
Si       2.70598582       1.49387394       3.16740511
Si       2.70598582      -1.16416534       2.59633305
Si       5.84433600       0.79832164       2.42856933
Si       5.84433600      -1.45623975       3.56811690
Si       5.84433600       0.65791810       4.95085055
Si       0.74012250      -0.00000000       3.64917893
10
Lattice="6.7037856462136975 -4.752599764802291e-16 -8.231744260669639e-16 2.878952682578637e-16 6.2203163708099165 1.3887254711371573e-12 2.8789526825741007e-16 -3.110158185406159 5.386951996696921" Properties=species:S:1:pos:R:3 unique_starting_index=146 config_type=initial n_minim_iter=7 stress="0.004331569051809057 -7.478994635347794e-17 9.902246750207627e-17 -7.478994635347794e-17 0.022497114889564032 -2.3239911709180777e-16 9.902246750207627e-17 -2.3239911709180777e-16 0.022497114889564285" pbc="T T T"
Si       1.28844148       3.51571822       4.05768082
Si       1.28844148       4.86635374       0.31341030
Si       1.28844148       0.94840259       1.01586088
Si       2.70527158      -0.31824359       5.06647515
Si       2.70527158       1.43665979       3.12932146
Si       2.70527158      -1.11841621       2.57810739
Si       5.81579243       0.78437594       2.37722404
Si       5.81579243      -1.44360975       3.51905049
Si       5.81579243       0.65923381       4.87762947
Si       0.89586417      -0.00000000       3.59130133
10
Lattice="6.751927118144821 -4.931343498909608e-16 -8.541337489675455e-16 2.615924014760193e-16 6.10092061786023 1.2630412704277387e-12 2.615924014756238e-16 -3.0504603089312075 5.2835522415385805" Properties=species:S:1:pos:R:3 unique_starting_index=146 config_type=initial n_minim_iter=8 stress="-0.005598865970643419 -3.7677582166764085e-18 2.923769269068688e-16 -3.7677582166764085e-18 0.010010188234694533 -1.6010578331641332e-16 2.923769269068688e-16 -1.6010578331641332e-16 0.010010188234694599" pbc="T T T"
Si       1.25423289       3.46186119       3.96873499
Si       1.25423289       4.75655503       0.30112501
Si       1.25423289       0.93296469       1.01369224
Si       2.73948039      -0.31030966       4.94692206
Si       2.73948039       1.38885469       3.07882726
Si       2.73948039      -1.07854504       2.54135516
Si       5.85979765       0.76107831       2.33062136
Si       5.85979765      -1.41262217       3.45912841
Si       5.85979765       0.65154385       4.77735472
Si       0.98161441      -0.00000000       3.52236816
10
Lattice="6.905275704053194 -5.152456202250352e-16 -8.924315926057402e-16 2.245271291313002e-16 5.865547045731981 1.1571989029681964e-12 2.2452712913100093e-16 -2.9327735228669907 5.07971274869608" Properties=species:S:1:pos:R:3 unique_starting_index=146 config_type=initial n_minim_iter=9 stress="-0.0021626577900680324 -8.701276700815312e-17 2.0599624923986793e-16 -8.701276700815312e-17 -0.020477766080544 -1.8254849732819534e-16 2.0599624923986793e-16 -1.8254849732819534e-16 -0.02047776608054414" pbc="T T T"
Si       1.23744240       3.35706071       3.77004298
Si       1.23744240       4.51919616       0.28739140
Si       1.23744240       0.92206369       1.02227837
Si       2.83325589      -0.29424346       4.75294935
Si       2.83325589       1.33052309       2.95806038
Si       2.83325589      -1.03627963       2.44841576
Si       5.99582702       0.72424874       2.23668182
Si       5.99582702      -1.35787462       3.33415403
Si       5.99582702       0.63362588       4.58858965
Si       1.03623920      -0.00000000       3.38647517
10
Lattice="6.940751319701304 -5.437085529809347e-16 -9.417308382710767e-16 1.8753229654318717e-16 5.777162000137132 1.1347061512720167e-12 1.8753229654296306e-16 -2.888581000069545 5.003169053896306" Properties=species:S:1:pos:R:3 unique_starting_index=146 config_type=initial n_minim_iter=10 stress="-0.0019141537477444664 -1.5257259820818956e-16 1.5874668921326443e-16 -1.5257259820818956e-16 -0.0359578936080559 -1.0979708749358851e-16 1.5874668921326443e-16 -1.0979708749358851e-16 -0.03595789360805605" pbc="T T T"
Si       1.20914154       3.33204995       3.66128270
Si       1.20914154       4.39331985       0.28688780
Si       1.20914154       0.94037319       1.05499856
Si       2.88419616      -0.28845438       4.69274777
Si       2.88419616       1.31968497       2.90660399
Si       2.88419616      -1.03123059       2.40698635
Si       6.03830918       0.70691750       2.19822229
Si       6.03830918      -1.33832341       3.29184939
Si       6.03830918       0.63140590       4.51626643
Si       1.00134739      -0.00000000       3.33544604
10
Lattice="6.891502131372921 -5.76359185585507e-16 -9.98283392841212e-16 1.5992622959656337e-16 5.86389163746319 1.1856586110268495e-12 1.5992622959637373e-16 -2.9319458187326193 5.078279123081663" Properties=species:S:1:pos:R:3 unique_starting_index=146 config_type=initial n_minim_iter=11 stress="-0.005091016266318581 -2.287399550532004e-16 2.059330543668629e-16 -2.287399550532004e-16 -0.007554712380312626 -8.271528736523427e-17 2.059330543668629e-16 -8.271528736523427e-17 -0.007554712380312419" pbc="T T T"
Si       1.18519277       3.40542744       3.65692769
Si       1.18519277       4.39622438       0.30062861
Si       1.18519277       0.99418563       1.12072283
Si       2.88325732      -0.29065929       4.78085120
Si       2.88325732       1.35372242       2.93957185
Si       2.88325732      -1.06306313       2.43613519
Si       5.99739683       0.71779512       2.21550604
Si       5.99739683      -1.37215887       3.34889729
Si       5.99739683       0.65436374       4.59215491
Si       0.97596998      -0.00000000       3.38551942
10
Lattice="6.931565410458997 -5.994900676538011e-16 -1.0383472558071845e-15 1.3633051759820184e-16 5.863448699448112 1.199651346487451e-12 1.3633051759804e-16 -2.93172434972509 5.077895527508294" Properties=species:S:1:pos:R:3 unique_starting_index=146 config_type=initial n_minim_iter=12 stress="0.0011300471367065947 -4.546184485471576e-16 1.5845965628458016e-16 -4.546184485471576e-16 -0.001894800130796254 1.6189777119355494e-16 1.5845965628458016e-16 1.6189777119355494e-16 -0.0018948001307965293" pbc="T T T"
Si       1.17595598       3.43058389       3.59830395
Si       1.17595598       4.33265503       0.30777076
Si       1.17595598       1.03193412       1.17182083
Si       2.91274191      -0.28696161       4.79103550
Si       2.91274191       1.36091491       2.93089382
Si       2.91274191      -1.07395330       2.43386173
Si       6.02763608       0.71639670       2.20109200
Si       6.02763608      -1.38372112       3.35693179
Si       6.02763608       0.66732441       4.59776727
Si       1.00573390      -0.00000000       3.38526369
10
Lattice="6.923940323506476 -6.122268126101771e-16 -1.0604079451945708e-15 1.2407808247522741e-16 5.876879625224682 1.2225459369718546e-12 1.2407808247507824e-16 -2.938439812613396 5.089527050427137" Properties=species:S:1:pos:R:3 unique_starting_index=146 config_type=initial n_minim_iter=13 stress="0.000621408321690592 -3.263079378010096e-16 1.8622137963189344e-16 -3.263079378010096e-16 0.0012133852282144458 1.2612104557433045e-16 1.8622137963189344e-16 1.2612104557433045e-16 0.0012133852282145143" pbc="T T T"
Si       1.18357457       3.44123296       3.59183938
Si       1.18357457       4.32844747       0.31341219
Si       1.18357457       1.04563899       1.18427548
Si       2.90282737      -0.28653402       4.80542238
Si       2.90282737       1.36644505       2.93496160
Si       2.90282737      -1.07991104       2.43867012
Si       6.01671959       0.71654670       2.20525212
Si       6.01671959      -1.38690881       3.36635334
Si       6.01671959       0.67036210       4.60744864
Si       1.01087937      -0.00000000       3.39301803
10
Lattice="6.917837285305168 -6.246285582407764e-16 -1.0818883987292039e-15 1.133748154767106e-16 5.90062402804992 1.20555531135689e-12 1.1337481547657353e-16 -2.950312014026003 5.110090306471492" Properties=species:S:1:pos:R:3 unique_starting_index=146 config_type=initial n_minim_iter=14 stress="-0.0022814391533262975 -2.791977050875842e-16 2.274511300543049e-16 -2.791977050875842e-16 0.0037294714474950066 1.64097418908809e-16 2.274511300543049e-16 1.64097418908809e-16 0.0037294714474950066" pbc="T T T"
Si       1.17313959       3.45950753       3.58687949
Si       1.17313959       4.32688700       0.32062916
Si       1.17313959       1.06454150       1.20258167
Si       2.89770920      -0.28924611       4.81687901
Si       2.89770920       1.36585063       2.95214528
Si       2.89770920      -1.07660453       2.45115633
Si       6.01685768       0.70587400       2.22123552
Si       6.01685768      -1.37960263       3.38816773
Si       6.01685768       0.67372863       4.61077737
Si       1.02951763      -0.00000000       3.40672687
10
Lattice="6.930831509200342 -6.347876029684796e-16 -1.0994843803538637e-15 1.0355978052617278e-16 5.907220890540198 1.2146353878126691e-12 1.0355978052604636e-16 -2.9536104452711496 5.1158033569733385" Properties=species:S:1:pos:R:3 unique_starting_index=146 config_type=initial n_minim_iter=15 stress="-0.0006130341634162731 -3.158523595692538e-16 2.0163802057306006e-16 -3.158523595692538e-16 0.0024869578899416748 -6.255369537141014e-17 2.0163802057306006e-16 -6.255369537141014e-17 0.0024869578899419462" pbc="T T T"
Si       1.18233178       3.46472455       3.57129547
Si       1.18233178       4.31408076       0.32961614
Si       1.18233178       1.08202601       1.21489175
Si       2.89260874      -0.29081391       4.81846937
Si       2.89260874       1.36471339       2.95842091
Si       2.89260874      -1.07389948       2.45471644
Si       6.03105764       0.69366049       2.23239136
Si       6.03105764      -1.36713307       3.39888007
Si       6.03105764       0.67347257       4.60033529
Si       1.03342157      -0.00000000       3.41053557
10
Lattice="6.940713480710895 -6.440182320532821e-16 -1.1154722989144792e-15 9.459648325967373e-17 5.913160421810931 1.2069301157145027e-12 9.459648325955771e-17 -2.9565802109065107 5.120947141940371" Properties=species:S:1:pos:R:3 unique_starting_index=146 config_type=initial n_minim_iter=16 stress="-0.0010052390183458609 -2.378270431764919e-16 1.3232418242517197e-16 -2.378270431764919e-16 0.0003139374536096834 1.9809222330043542e-17 1.3232418242517197e-16 1.9809222330043542e-17 0.0003139374536096834" pbc="T T T"
Si       1.18349611       3.46849101       3.56282174
Si       1.18349611       4.30782883       0.33573494
Si       1.18349611       1.09342078       1.22239046
Si       2.89064884      -0.29379690       4.81543772
Si       2.89064884       1.36060963       2.96766386
Si       2.89064884      -1.06681274       2.45879271
Si       6.04802713       0.67999502       2.24396290
Si       6.04802713      -1.35324885       3.41007273
Si       6.04802713       0.67325382       4.58785866
Si       1.02960058      -0.00000000       3.41396476
10
Lattice="6.959500612293164 -6.564705643487532e-16 -1.1370403711228474e-15 8.111106550346552e-17 5.908381628388381 1.2043273235878808e-12 8.111106550336559e-17 -2.954190814195232 5.116808585437006" Properties=species:S:1:pos:R:3 unique_starting_index=146 config_type=initial n_minim_iter=17 stress="0.0022180913873468306 -3.5558594180792662e-16 1.8133681701734607e-16 -3.5558594180792662e-16 -0.0005082868054540439 -4.399263157952748e-17 1.8133681701734607e-16 -4.399263157952748e-17 -0.0005082868054543141" pbc="T T T"
Si       1.18669096       3.46577611       3.56296729
Si       1.18669096       4.30692294       0.33387479
Si       1.18669096       1.08987339       1.21996651
Si       2.89766370      -0.29518593       4.80702851
Si       2.89766370       1.35641095       2.96893284
Si       2.89766370      -1.06122503       2.45765582
Si       6.06827944       0.67742363       2.23923289
Si       6.06827944      -1.35367007       3.41052606
Si       6.06827944       0.67624643       4.58385822
Si       1.02319761      -0.00000000       3.41120572
10
Lattice="6.948914535978206 -6.677869777993855e-16 -1.1566409741786897e-15 6.95960525618894e-17 5.913677531444782 1.1991999376313944e-12 6.959605256180348e-17 -2.956838765723429 5.121394972019832" Properties=species:S:1:pos:R:3 unique_starting_index=146 config_type=initial n_minim_iter=18 stress="-0.003478916387026016 -3.3964764809165844e-16 2.2843602011106713e-16 -3.3964764809165844e-16 -0.001130354261901893 6.744762449055405e-17 2.2843602011106713e-16 6.744762449055405e-17 -0.001130354261901893" pbc="T T T"
Si       1.18726320       3.47141883       3.56969236
Si       1.18726320       4.31257362       0.33021190
Si       1.18726320       1.08652385       1.22149071
Si       2.88742314      -0.29925556       4.79922054
Si       2.88742314       1.34903592       2.98094762
Si       2.88742314      -1.04978036       2.46262179
Si       6.06384877       0.67268821       2.23030729
Si       6.06384877      -1.36168010       3.42367625
Si       6.06384877       0.68899188       4.58880640
Si       1.01760878      -0.00000000       3.41426332
10
Lattice="6.962561234356516 -6.742097481073847e-16 -1.1677655386774318e-15 6.353104381313247e-17 5.918720081474574 1.2011679866233348e-12 6.353104381305378e-17 -2.9593600407383263 5.125761948445485" Properties=species:S:1:pos:R:3 unique_starting_index=146 config_type=initial n_minim_iter=19 stress="7.090825694173217e-05 -3.8712928664406035e-16 1.3882294492924124e-16 -3.8712928664406035e-16 9.412159095469311e-05 7.604768201513815e-17 1.3882294492924124e-16 7.604768201513815e-17 9.412159095469311e-05" pbc="T T T"
Si       1.19232656       3.47628585       3.56972423
Si       1.19232656       4.31268898       0.33034797
Si       1.19232656       1.08910528       1.22568975
Si       2.89015225      -0.30152192       4.79922925
Si       2.89015225       1.34765536       2.98727297
Si       2.89015225      -1.04613345       2.46502168
Si       6.07603401       0.66857947       2.22945329
Si       6.07603401      -1.36288659       3.43202850
Si       6.07603401       0.69430712       4.59004211
Si       1.01940610      -0.00000000       3.41717463
10
Lattice="6.975952562958542 -6.8363379595231e-16 -1.1840884683577217e-15 5.456928237761752e-17 5.926258085669963 1.2133942010772543e-12 5.456928237754923e-17 -2.963129042836033 5.132290051572522" Properties=species:S:1:pos:R:3 unique_starting_index=146 config_type=initial n_minim_iter=20 stress="0.00311416630242028 -3.519235245938176e-16 1.7298448685696707e-16 -3.519235245938176e-16 0.0005990050354907673 1.2613250470821175e-16 1.7298448685696707e-16 1.2613250470821175e-16 0.0005990050354909013" pbc="T T T"
Si       1.20283701       3.48946340       3.56187102
Si       1.20283701       4.30306813       0.32939059
Si       1.20283701       1.09685559       1.24102844
Si       2.89080697      -0.30904529       4.79700928
Si       2.89080697       1.34572550       3.00142649
Si       2.89080697      -1.03668021       2.46614434
Si       6.08594462       0.65377688       2.22428766
Si       6.08594462      -1.36372786       3.45395883
Si       6.08594462       0.70995098       4.58633361
Si       1.01675403      -0.00000000       3.42152670
10
Lattice="6.954280032022836 -6.924585213644402e-16 -1.199373341134295e-15 4.704204661248181e-17 5.942774810927781 1.2122153501574822e-12 4.704204661242241e-17 -2.9713874054649394 5.146593955233118" Properties=species:S:1:pos:R:3 unique_starting_index=146 config_type=initial n_minim_iter=21 stress="0.0013101224379841617 -4.176368692269913e-16 1.5187713014019048e-16 -4.176368692269913e-16 0.002623814720635799 3.0238402719913886e-16 1.5187713014019048e-16 3.0238402719913886e-16 0.002623814720635331" pbc="T T T"
Si       1.20237662       3.51355030       3.57517483
Si       1.20237662       4.31080447       0.31618272
Si       1.20237662       1.08980743       1.25523641
Si       2.88896385      -0.32948915       4.79828544
Si       2.88896385       1.34879425       3.03279720
Si       2.88896385      -1.01930511       2.46210526
Si       6.05867098       0.62608062       2.21704197
Si       6.05867098      -1.36441305       3.49587125
Si       6.05867098       0.73833242       4.58027469
Si       1.00745039      -0.00000000       3.43106264
