6
Lattice="3.1328500000000004 4.702748281224148e-16 1.8858681635748346e-16 -0.6003501440089286 4.604174369752788 5.603514368533996e-17 -1.1176268610123046 -1.060216499094206 8.043519196141212" Properties=species:S:1:pos:R:3 unique_starting_index=56 config_type=initial n_minim_iter=1 pbc="T T T"
Si      -0.17066837       3.35607194       6.52949803
Si       0.94403767       3.86988750       0.05198526
Si      -0.14385203       3.84528426       1.58391934
Si       0.38689258       1.82961228       6.22254367
Si       1.63706336       0.79299210       5.97963421
Si       0.13685743       2.13237669       1.44792837
6
Lattice="3.1468168616333347 -0.0054072890070030214 -0.002085195043889016 -0.6109734131883704 4.622406073335287 0.0036580167801595863 -1.1261332207384596 -1.0565546412685871 8.055922146378629" Properties=species:S:1:pos:R:3 unique_starting_index=56 config_type=initial n_minim_iter=2 pbc="T T T"
Si      -0.18173451       3.37415410       6.54196405
Si       0.94183444       3.88278067       0.05409000
Si      -0.15249040       3.86111603       1.58979012
Si       0.38008999       1.84082588       6.23309836
Si       1.64035678       0.79604220       5.98786074
Si       0.13287799       2.14103608       1.45170536
6
Lattice="3.1683652167190695 -0.00898019191471877 -0.004716032262527344 -0.6203536344157509 4.644814612562647 0.008172300729215303 -1.1393659511634908 -1.0532767154192988 8.07588334760208" Properties=species:S:1:pos:R:3 unique_starting_index=56 config_type=initial n_minim_iter=3 pbc="T T T"
Si      -0.19194796       3.39533305       6.56100976
Si       0.94451580       3.90017658       0.05628115
Si      -0.15994841       3.88157952       1.59848756
Si       0.37384577       1.85619556       6.24968444
Si       1.64690608       0.80170814       6.00135044
Si       0.13038643       2.15145351       1.45723386
6
Lattice="3.1871911535186825 -0.004856679489136845 -0.006228991131792646 -0.6179011657835228 4.662818493731919 0.011413708748580505 -1.1513619619098427 -1.053919270543796 8.096306849219859" Properties=species:S:1:pos:R:3 unique_starting_index=56 config_type=initial n_minim_iter=4 pbc="T T T"
Si      -0.19092434       3.41095285       6.57982150
Si       0.95615171       3.91758477       0.05732913
Si      -0.15770817       3.89999172       1.60686417
Si       0.37536463       1.86974350       6.26623944
Si       1.65417779       0.81100481       6.01597686
Si       0.13375908       2.15942816       1.46238564
6
Lattice="3.187671232303488 -0.004704480710419766 -0.006267817593200491 -0.6177694855726967 4.663392273034621 0.011509125727380758 -1.1516844203707597 -1.053958712861241 8.096824801421912" Properties=species:S:1:pos:R:3 unique_starting_index=56 config_type=initial n_minim_iter=5 pbc="T T T"
Si      -0.19084387       3.41144300       6.58031339
Si       0.95651066       3.91814897       0.05735733
Si      -0.15760183       3.90059288       1.60709646
Si       0.37544076       1.87016093       6.26666467
Si       1.65435927       0.81131574       6.01635407
Si       0.13388180       2.15966925       1.46252081
6
Lattice="3.839539249890757 0.21678904566036464 -0.05817570705236456 -0.4171707467409009 5.436889134240607 0.14069768044105752 -1.5924646692454922 -1.1125491391819828 8.759222420682738" Properties=species:S:1:pos:R:3 unique_starting_index=56 config_type=initial n_minim_iter=6 pbc="T T T"
Si      -0.06667385       4.07030190       7.21246877
Si       1.46708806       4.68835609       0.09633381
Si       0.00599338       4.71914068       1.91580279
Si       0.49353084       2.44083288       6.81409669
Si       1.90312411       1.23868471       6.50010620
Si       0.30674277       2.48097101       1.63593403
6
Lattice="3.948962369074475 -0.07137794499779757 -0.15906880501587037 -0.8616424763024688 5.932480366574559 0.2672163414094262 -1.7930201983812564 -0.9239004890203946 9.038718515482497" Properties=species:S:1:pos:R:3 unique_starting_index=56 config_type=initial n_minim_iter=7 pbc="T T T"
Si      -0.59291393       4.60534793       7.50110357
Si       1.14670321       4.95519044       0.17402149
Si      -0.42449970       5.16061520       2.06993890
Si       0.08653326       2.72259074       7.05538006
Si       1.75297470       1.26698280       6.65323692
Si       0.08016757       2.69247124       1.72699751
6
Lattice="3.813950966758211 -0.14637161965708279 -0.17692589872502915 -0.9459841587757565 5.918351816789608 0.2291030978207086 -1.7653240032438704 -0.9631464701143113 9.32048380168445" Properties=species:S:1:pos:R:3 unique_starting_index=56 config_type=initial n_minim_iter=8 pbc="T T T"
Si      -0.70715914       4.57424991       7.65298324
Si       1.01032199       4.88692542       0.17702879
Si      -0.52187376       5.12130591       2.08204022
Si      -0.00858069       2.62141799       7.24046846
Si       1.63564384       1.16561912       6.83586424
Si       0.01716942       2.67211964       1.75459832
6
Lattice="3.426551490682791 -0.31453196072774675 -0.2074503681216833 -1.1188823827940073 5.7127696785921795 0.06426038135553727 -1.6485835678714753 -1.1465958955689413 10.08953241897824" Properties=species:S:1:pos:R:3 unique_starting_index=56 config_type=initial n_minim_iter=9 pbc="T T T"
Si      -0.93912529       4.28199911       7.99364200
Si       0.68200638       4.57158319       0.17154990
Si      -0.72784513       4.85458474       2.05319838
Si      -0.22008554       2.22549974       7.72981532
Si       1.35045753       0.80139062       7.32994155
Si      -0.12698295       2.53060295       1.80058100
6
Lattice="3.4837556030012404 -0.38163442034636014 -0.23921562775145933 -1.2284611758392117 5.726386957279631 0.22953884309561204 -1.7278386210251595 -0.8447240452674162 9.62497530166333" Properties=species:S:1:pos:R:3 unique_starting_index=56 config_type=initial n_minim_iter=10 pbc="T T T"
Si      -1.08231428       4.54627846       7.77489470
Si       0.62798378       4.54545403       0.28420222
Si      -0.84220274       4.92228621       2.09178821
Si      -0.31273802       2.43524655       7.46192619
Si       1.29998693       0.93115462       7.00835215
Si      -0.18151885       2.58236168       1.78519311
6
Lattice="3.494040200565052 -0.35923425853181323 -0.259536354743157 -1.197511755574488 5.5535818616901995 0.27297807351992603 -1.791261230236406 -0.7448256955692188 9.377428279057309" Properties=species:S:1:pos:R:3 unique_starting_index=56 config_type=initial n_minim_iter=11 pbc="T T T"
Si      -1.09550632       4.49108309       7.60394648
Si       0.66802042       4.40001101       0.31668830
Si      -0.83477944       4.79174238       2.07000018
Si      -0.33082028       2.42700984       7.29428980
Si       1.25780226       0.95183501       6.82178089
Si      -0.17470350       2.52918529       1.75112596
6
Lattice="3.5490039287428066 -0.38270267240960304 -0.28900633078944543 -1.2425347064982968 5.607065586885644 0.30257436015410716 -1.8785905493644115 -0.7058947934364381 9.36372449426094" Properties=species:S:1:pos:R:3 unique_starting_index=56 config_type=initial n_minim_iter=12 pbc="T T T"
Si      -1.18471638       4.57635905       7.60318672
Si       0.66189343       4.42452392       0.33458412
Si      -0.89119472       4.84810485       2.08840431
Si      -0.39420071       2.47408883       7.29016581
Si       1.22236698       0.97026636       6.79436096
Si      -0.19894974       2.55848024       1.75247899
6
Lattice="3.557467377768572 -0.3793898140173085 -0.300402747458213 -1.239287840271382 5.565302078847894 0.3033786326743621 -1.911991006244614 -0.7000160439460216 9.301381784037671" Properties=species:S:1:pos:R:3 unique_starting_index=56 config_type=initial n_minim_iter=13 pbc="T T T"
Si      -1.20334560       4.54950106       7.54479813
Si       0.67208784       4.38472580       0.33473045
Si      -0.89781265       4.81349233       2.07265150
Si      -0.41214869       2.45517129       7.24009845
Si       1.20201859       0.96188188       6.73933340
Si      -0.20068555       2.54209038       1.73570299
6
Lattice="3.5856757189406605 -0.3819388708384851 -0.3195911186502376 -1.248439629781898 5.544704021433669 0.305384580629927 -1.9704572206261888 -0.6971705029837597 9.236315854134235" Properties=species:S:1:pos:R:3 unique_starting_index=56 config_type=initial n_minim_iter=14 pbc="T T T"
Si      -1.24528444       4.54075295       7.48015861
Si       0.68259216       4.35656048       0.33425832
Si      -0.91937550       4.79780584       2.05641765
Si      -0.44658153       2.44215533       7.18604953
Si       1.17546417       0.95264435       6.67617712
Si      -0.20807137       2.53427316       1.71533858
6
Lattice="3.6990491521421034 -0.3840912849592483 -0.38579718001654095 -1.2733287393393895 5.470894895870933 0.28486123666292607 -2.180156661968152 -0.7373302788812784 9.000874565551758" Properties=species:S:1:pos:R:3 unique_starting_index=56 config_type=initial n_minim_iter=15 pbc="T T T"
Si      -1.38120896       4.46961908       7.22036935
Si       0.73149829       4.25585238       0.30976929
Si      -0.98657041       4.73297022       1.97466733
Si      -0.56278855       2.35848013       6.97713119
Si       1.09418677       0.89447941       6.44447257
Si      -0.22729284       2.49838927       1.62550630
