14
Lattice="6.684310614343084 1.9309035477330396 -1.451528040710974 0.9760383239574596 5.048827207348527 1.0416828225641286 -4.945687412762912 -2.3915969900276366 9.555422893049185" Properties=species:S:1:pos:R:3 unique_starting_index=128 config_type=initial n_minim_iter=1 energy=-2280.6343850176654 free_energy=-2280.6343850176654 pbc="T T T"
Si      -3.87969019      -1.77062203       7.85105483
Si       1.98815385       2.17871432       7.43712008
Si      -1.22456378       3.71397526       7.39621885
Si       4.19606242       1.94819846       3.05662265
Si       1.00526924       2.69384366       9.61947584
Si       0.87238980       2.24013252       3.02234327
Si       2.70698162       3.62322553       3.79236820
Si      -0.89520245      -0.26996965       7.99884405
Si       3.63463197       4.61654079       0.78908003
Si      -0.23927076       0.82991431       4.62773679
Si       3.42531858       5.88114918       2.89111070
Si      -0.23720408       1.65314718       6.82812794
Si       1.26319464      -0.96122927       5.02857814
Si       2.57784963       2.59737560       0.20706989
14
Lattice="6.684155684417366 1.927245918231973 -1.4509034138032337 0.9740787244881769 5.0478989402635905 1.0438021946588378 -4.943672173865 -2.386679773457594 9.560577990658908" Properties=species:S:1:pos:R:3 unique_starting_index=128 config_type=initial n_minim_iter=2 stress="0.0003042241417873021 -0.0002148506201394202 -7.985423183796998e-06 -0.0002148506201394202 0.00019913825563549014 0.00016278051307405073 -7.985423183796998e-06 0.00016278051307405073 0.0004545180031966432" pbc="T T T"
Si      -3.87785345      -1.76644080       7.85552426
Si       1.98873770       2.17936481       7.44348190
Si      -1.22494861       3.71567926       7.40246534
Si       4.19642532       1.94679733       3.05946703
Si       1.00610800       2.69549752       9.62662502
Si       0.87204326       2.24035629       3.02505504
Si       2.70595586       3.62245911       3.79660042
Si      -0.89363514      -0.26764416       8.00376389
Si       3.63281963       4.61462163       0.79132983
Si      -0.23906262       0.83075860       4.63094140
Si       3.42377444       5.87942995       2.89476276
Si      -0.23671297       1.65440452       6.83325738
Si       1.26461361      -0.96064365       5.03227243
Si       2.57695626       2.59584947       0.20857673
14
Lattice="6.681105352643525 1.9259669293105142 -1.4495842884402916 0.9735823192738283 5.045276310910469 1.0435806030592245 -4.93980745245955 -2.3856903917610888 9.558506921288387" Properties=species:S:1:pos:R:3 unique_starting_index=128 config_type=initial n_minim_iter=3 stress="-0.00027473366912577956 -0.00026608243758689814 7.847428533866603e-05 -0.00026608243758689814 -0.00045285170438888727 0.00012414365188584083 7.847428533866603e-05 0.00012414365188584083 8.264859866859509e-06" pbc="T T T"
Si      -3.87446218      -1.76538059       7.85407800
Si       1.98916715       2.17782389       7.44324914
Si      -1.22302193       3.71337451       7.40162217
Si       4.19526181       1.94547870       3.05916503
Si       1.00767001       2.69381069       9.62492604
Si       0.87214449       2.23931575       3.02453445
Si       2.70479496       3.62036746       3.79678938
Si      -0.89159687      -0.26800073       8.00207338
Si       3.63069374       4.61239094       0.79158303
Si      -0.23836339       0.82974541       4.63010607
Si       3.42272039       5.87615117       2.89419770
Si      -0.23531556       1.65291352       6.83220564
Si       1.26500242      -0.96073774       5.03216208
Si       2.57565272       2.59430306       0.20920077
14
Lattice="6.682858298111034 1.9307406460613805 -1.4495093196953488 0.9764351517556253 5.047430544633708 1.0417467627410137 -4.940900417858804 -2.39258684943186 9.557644281447695" Properties=species:S:1:pos:R:3 unique_starting_index=128 config_type=initial n_minim_iter=4 stress="-5.03370907886627e-05 9.919722488496438e-05 0.00011898633218376678 9.919722488496438e-05 -8.061250251263984e-05 -0.00017106562466560245 0.00011898633218376678 -0.00017106562466560245 8.613556052638047e-05" pbc="T T T"
Si      -3.87479248      -1.77024061       7.85379004
Si       1.99118350       2.17714526       7.44263582
Si      -1.22001864       3.71139065       7.40008311
Si       4.19714370       1.94742642       3.05748888
Si       1.01070806       2.69240089       9.62199535
Si       0.87368541       2.24012264       3.02306487
Si       2.70638440       3.62200536       3.79597716
Si      -0.89085751      -0.27165513       8.00027471
Si       3.63266352       4.61644712       0.79003918
Si      -0.23786931       0.82765793       4.62900635
Si       3.42670015       5.87924255       2.89113009
Si      -0.23361355       1.65049514       6.83055799
Si       1.26494901      -0.96260610       5.03243580
Si       2.57707998       2.59640791       0.20896819
14
Lattice="6.683394599939292 1.9306068237909464 -1.4500127553978939 0.9761347428525795 5.048529551133501 1.0422914741168277 -4.942961030653872 -2.390903405866044 9.555315469719545" Properties=species:S:1:pos:R:3 unique_starting_index=128 config_type=initial n_minim_iter=5 stress="-2.9271834937796664e-05 2.5041192903271617e-05 -5.148255491015976e-05 2.5041192903271617e-05 1.899371821136638e-06 3.003788505529617e-06 -5.148255491015976e-05 3.003788505529617e-06 -0.00011823778685240925" pbc="T T T"
Si      -3.87643976      -1.76864315       7.85201203
Si       1.98973305       2.17904903       7.44079028
Si      -1.22143740       3.71365327       7.39899160
Si       4.19664546       1.94821263       3.05596329
Si       1.00896681       2.69496745       9.61934191
Si       0.87301054       2.24128274       3.02237003
Si       2.70533716       3.62338262       3.79531126
Si      -0.89239011      -0.27007822       7.99786437
Si       3.63224949       4.61751281       0.78996560
Si      -0.23887879       0.82858448       4.62777387
Si       3.42620192       5.88078862       2.89053711
Si      -0.23490191       1.65201580       6.82885344
Si       1.26403537      -0.96188082       5.03077912
Si       2.57705545       2.59682284       0.20906326
14
Lattice="6.68269061390187 1.9297418777928976 -1.4480633618731436 0.9759931488876855 5.0484475082019875 1.0436132229269928 -4.939576687000451 -2.3891411233791064 9.556588076941678" Properties=species:S:1:pos:R:3 unique_starting_index=128 config_type=initial n_minim_iter=6 stress="0.00016100727878339306 -1.3353785574156406e-05 8.054429378501467e-05 -1.3353785574156406e-05 1.649999658431809e-05 0.0001514565886244003 8.054429378501467e-05 0.0001514565886244003 0.00016553059772800077" pbc="T T T"
Si      -3.87407872      -1.76635025       7.85346039
Si       1.99201593       2.17978312       7.44524307
Si      -1.21846006       3.71477420       7.40090155
Si       4.19689481       1.94774630       3.05827143
Si       1.01229651       2.69657944       9.62289262
Si       0.87356143       2.24186241       3.02367177
Si       2.70517768       3.62322766       3.79872730
Si      -0.88946461      -0.26901548       8.00019149
Si       3.63115410       4.61754065       0.79162332
Si      -0.23745207       0.82849336       4.62872089
Si       3.42676899       5.88061012       2.89250059
Si      -0.23225652       1.65225481       6.83082815
Si       1.26595599      -0.96157157       5.03441715
Si       2.57730190       2.59672400       0.21050671
14
Lattice="6.681539252142186 1.9293811756948456 -1.4490969136163065 0.9750917673136744 5.048676864610858 1.0425379970893112 -4.939362133566289 -2.3906929637316874 9.557798375522944" Properties=species:S:1:pos:R:3 unique_starting_index=128 config_type=initial n_minim_iter=7 stress="5.3382390723551066e-05 -0.00012078658512287197 -3.800743225633442e-05 -0.00012078658512287197 8.004849462426923e-05 -1.0984780292178254e-05 -3.800743225633442e-05 -1.0984780292178254e-05 0.00018244581401415035" pbc="T T T"
Si      -3.87414876      -1.76734868       7.85442194
Si       1.99078789       2.17824557       7.44514293
Si      -1.21914185       3.71392246       7.40013008
Si       4.19546182       1.94665053       3.05758507
Si       1.01097520       2.69496396       9.62256945
Si       0.87277569       2.24143021       3.02314891
Si       2.70367949       3.62235239       3.79810787
Si      -0.88996462      -0.27053934       8.00063747
Si       3.62971686       4.61749235       0.79022449
Si      -0.23790303       0.82748475       4.62849876
Si       3.42524587       5.88020759       2.89088596
Si      -0.23284737       1.65095330       6.83048921
Si       1.26554550      -0.96286957       5.03524495
Si       2.57677470       2.59675774       0.20974975
14
Lattice="6.681493252117728 1.9304817627613615 -1.4486100981826386 0.9757969527478247 5.049100199293623 1.0422019467501946 -4.939207324189012 -2.391779646090588 9.555517638856852" Properties=species:S:1:pos:R:3 unique_starting_index=128 config_type=initial n_minim_iter=8 stress="-1.7070976721427388e-05 4.390777869539059e-06 7.16900253332721e-06 4.390777869539059e-06 -1.9781589372532234e-06 -1.3769976527843316e-05 7.16900253332721e-06 -1.3769976527843316e-05 -2.7711881100583183e-05" pbc="T T T"
Si      -3.87416262      -1.76787353       7.85244076
Si       1.99132924       2.17846226       7.44368754
Si      -1.21813422       3.71383969       7.39768238
Si       4.19525244       1.94710615       3.05718513
Si       1.01147698       2.69519537       9.62060333
Si       0.87298343       2.24148830       3.02234191
Si       2.70407795       3.62259187       3.79751163
Si      -0.88968799      -0.27080200       7.99899258
Si       3.63015660       4.61830960       0.78979006
Si      -0.23749438       0.82718393       4.62713564
Si       3.42594441       5.88092672       2.89004027
Si      -0.23222040       1.65079682       6.82851940
Si       1.26561954      -0.96282376       5.03482908
Si       2.57742451       2.59746629       0.20963437
14
Lattice="6.681411955324115 1.931520852259089 -1.4497179012378525 0.9762313715697434 5.049348851657056 1.0417686509152817 -4.940670429221998 -2.3929496632041856 9.555951321669625" Properties=species:S:1:pos:R:3 unique_starting_index=128 config_type=initial n_minim_iter=9 stress="-0.0001160611549056774 0.0001561232537180039 -5.280909661463178e-05 0.0001561232537180039 -0.00012913688324153632 1.4674813202852388e-05 -5.280909661463178e-05 1.4674813202852388e-05 -5.97824315590681e-05" pbc="T T T"
Si      -3.87470852      -1.76766915       7.85222184
Si       1.99056181       2.17854805       7.44370438
Si      -1.21842074       3.71308779       7.39660172
Si       4.19375430       1.94750123       3.05651832
Si       1.00956190       2.69549041       9.62085084
Si       0.87231408       2.24098195       3.02167972
Si       2.70344818       3.62218510       3.79781277
Si      -0.89064399      -0.27100105       7.99862233
Si       3.63008963       4.61927512       0.78816465
Si      -0.23796776       0.82611217       4.62610816
Si       3.42551440       5.88125288       2.88861616
Si      -0.23278294       1.65047155       6.82711299
Si       1.26455626      -0.96284624       5.03583757
Si       2.57835085       2.59839586       0.20922350
14
Lattice="6.68169432213005 1.9306310983448034 -1.4485632624349367 0.9753361035112692 5.050247636062097 1.0409178659383753 -4.939407982188083 -2.3936795992972857 9.552689004424527" Properties=species:S:1:pos:R:3 unique_starting_index=128 config_type=initial n_minim_iter=10 stress="-1.888491477875439e-05 1.0368731183485483e-05 0.00013381192034953555 1.0368731183485483e-05 2.9113646798514623e-05 -2.8109938016682714e-05 0.00013381192034953555 -2.8109938016682714e-05 -0.00026507901432357194" pbc="T T T"
Si      -3.87284512      -1.76729353       7.84902206
Si       1.99168316       2.17773959       7.44219034
Si      -1.21822337       3.71288816       7.39340214
Si       4.19376213       1.94660113       3.05606812
Si       1.00991391       2.69499887       9.61857965
Si       0.87208010       2.24038659       3.02041661
Si       2.70332383       3.62142528       3.79757323
Si      -0.88925826      -0.27165000       7.99583228
Si       3.62946084       4.61986757       0.78724826
Si      -0.23753279       0.82502655       4.62394966
Si       3.42458019       5.88132988       2.88707168
Si      -0.23200263       1.64998076       6.82397930
Si       1.26564550      -0.96410099       5.03556639
Si       2.57874263       2.59876288       0.20937841
14
Lattice="6.682070867448589 1.9302072142254425 -1.4500594797645687 0.9750892392958903 5.049513418515746 1.0410993013199028 -4.941117772502576 -2.3931026996040305 9.556016995868163" Properties=species:S:1:pos:R:3 unique_starting_index=128 config_type=initial n_minim_iter=11 stress="2.0551291724259187e-05 2.2843513055653068e-07 7.875422360437804e-06 2.2843513055653068e-07 -1.235080243045343e-05 -5.873926259326408e-06 7.875422360437804e-06 -5.873926259326408e-06 -2.7161826297273747e-05" pbc="T T T"
Si      -3.87389808      -1.76677155       7.85168291
Si       1.99042037       2.17757249       7.44391873
Si      -1.21959843       3.71232477       7.39584468
Si       4.19345147       1.94640136       3.05608737
Si       1.00813496       2.69474354       9.62106070
Si       0.87159882       2.23995779       3.02110915
Si       2.70269149       3.62092758       3.79827636
Si      -0.89056556      -0.27141465       7.99782681
Si       3.62932883       4.61930800       0.78692797
Si      -0.23848987       0.82484229       4.62519877
Si       3.42391736       5.88040685       2.88731463
Si      -0.23325273       1.64989079       6.82584880
Si       1.26472380      -0.96396054       5.03644311
Si       2.57865627       2.59828618       0.20915529
