20
Lattice="2.4752836250746513 -1.7020611408070316e-16 -5.94094255768002e-09 3.657056147978241e-16 5.318406164436828 -2.128361550981657e-14 5.526327460073938e-08 9.214465205176275e-14 23.02534948943058" Properties=species:S:1:pos:R:3 unique_starting_index=4 config_type=initial n_minim_iter=1 energy=-3256.727506638729 free_energy=-3256.727506638729 pbc="T T T"
Si       1.23149059       4.65247727      14.96746170
Si       1.23149057       0.66592890       8.05788778
Si       1.23725176       3.32619828      12.66498474
Si       1.23725175       1.99220789      10.36036474
Si       1.24379312       1.99327419      19.57056253
Si       1.24379308       3.32513198       3.45478696
Si       1.23803195       5.98540136      21.87303948
Si       1.23803190      -0.66699519       1.15231000
Si       1.23294181       4.66496544       5.74803213
Si       1.23294184       0.65344072      17.27731735
Si       1.23458552       4.64506797      19.57238178
Si       1.23458548       0.67333819       3.45296770
Si       1.24234184       2.00576236       5.76464261
Si       1.24234187       3.31264381      17.26070688
Si       1.24069819       1.98586489      14.96564245
Si       1.24069817       3.33254127       8.05970703
Si       3.71106834       3.32203998      21.87507677
Si       3.71106829       1.99636618       1.15027270
Si      -1.23578463       4.65556926      10.36240203
Si      -1.23578463       0.66283690      12.66294746
20
Lattice="2.4751407643699324 -1.7019629068109704e-16 -5.94059967687562e-09 3.655870201902052e-16 5.316681460289296 -2.127675539419285e-14 5.526031050021171e-08 9.213952820431708e-14 23.024114501980698" Properties=species:S:1:pos:R:3 unique_starting_index=4 config_type=initial n_minim_iter=2 stress="-0.00016069747516344595 6.760562507957913e-17 -2.672237302933527e-13 6.760562507957913e-17 -0.0003064461697288644 -1.2467801212619874e-17 -2.672237302933527e-13 -1.2467801212619874e-17 -0.0002720448818658451" pbc="T T T"
Si       1.23160590       4.65085064      14.96664223
Si       1.23160588       0.66583082       8.05747227
Si       1.23718272       3.32492779      12.66433477
Si       1.23718271       1.99175367      10.35977973
Si       1.24353495       1.99250991      19.56952952
Si       1.24353491       3.32417155       3.45458498
Si       1.23795813       5.98326852      21.87183698
Si       1.23795808      -0.66658706       1.15227752
Si       1.23301302       4.66337700       5.74800304
Si       1.23301305       0.65330446      17.27611146
Si       1.23461649       4.64367372      19.57132688
Si       1.23461645       0.67300774       3.45278761
Si       1.24212777       2.00503627       5.76405421
Si       1.24212779       3.31164520      17.26006029
Si       1.24052436       1.98533299      14.96484486
Si       1.24052434       3.33134847       8.05926963
Si       3.71090549       3.32109477      21.87393319
Si       3.71090544       1.99558669       1.15018130
Si      -1.23576465       4.65392742      10.36187595
Si      -1.23576464       0.66275404      12.66223856
20
Lattice="2.4763842632295634 -1.7028179630208092e-16 -5.943584205687096e-09 3.6516969203572147e-16 5.3106123087836705 -2.1244787638677262e-14 5.533121080209001e-08 9.229099427633149e-14 23.053654992323487" Properties=species:S:1:pos:R:3 unique_starting_index=4 config_type=initial n_minim_iter=3 stress="0.000830609951436572 2.6035732589657534e-17 -1.0965541806356744e-12 2.6035732589657534e-17 -0.0005338074306597397 -5.178707700826358e-17 -1.0965541806356744e-12 -5.178707700826358e-17 0.0003737380005458617" pbc="T T T"
Si       1.23432937       4.64421243      14.98565080
Si       1.23432935       0.66639988       8.06800419
Si       1.23783131       3.31897891      12.68091221
Si       1.23783131       1.99163340      10.37274277
Si       1.24205498       1.98890627      19.59483168
Si       1.24205494       3.32170604       3.45882330
Si       1.23855303       5.97428507      21.89957027
Si       1.23855298      -0.66367276       1.15408472
Si       1.23524021       4.65719831       5.75853172
Si       1.23524024       0.65341400      17.29512326
Si       1.23639065       4.63963701      19.59637340
Si       1.23639061       0.67097530       3.45728159
Si       1.24114408       2.00189215       5.76829577
Si       1.24114411       3.30872015      17.28535922
Si       1.23999370       1.98433086      14.98410909
Si       1.23999368       3.32628145       8.06954590
Si       3.71334991       3.31878206      21.90233161
Si       3.71334986       1.99183025       1.15132337
Si      -1.23696557       4.64713640      10.37550413
Si      -1.23696557       0.66347590      12.67815087
20
Lattice="2.4747634763345996 -1.7017034718238707e-16 -5.9396941456779415e-09 3.652387384259462e-16 5.3116164349342965 -2.1202263268676097e-14 5.5340400137843164e-08 9.250781328901345e-14 23.057483713455575" Properties=species:S:1:pos:R:3 unique_starting_index=4 config_type=initial n_minim_iter=4 stress="-0.0003721845414298465 1.6845210724016845e-17 2.2544172392664943e-12 1.6845210724016845e-17 -0.0003329949589279279 1.5932297990451719e-16 2.2544172392664943e-12 1.5932297990451719e-16 0.00056710081266324" pbc="T T T"
Si       1.23438816       4.64454454      14.98804929
Si       1.23438814       0.66707189       8.06943442
Si       1.23703293       3.31873989      12.68314852
Si       1.23703292       1.99287654      10.37433519
Si       1.24037540       1.98873633      19.59817628
Si       1.24037536       3.32288011       3.45930743
Si       1.23773063       5.97454811      21.90307704
Si       1.23773058      -0.66293167       1.15440666
Si       1.23509391       4.65772215       5.76078177
Si       1.23509394       0.65389429      17.29670194
Si       1.23605593       4.64103439      19.59958958
Si       1.23605590       0.67058205       3.45789412
Si       1.23966959       2.00191393       5.76796008
Si       1.23966962       3.30970251      17.28952362
Si       1.23870762       1.98522617      14.98663598
Si       1.23870761       3.32639026       8.07084773
Si       3.71115922       3.31999588      21.90610231
Si       3.71115917       1.99162055       1.15138139
Si      -1.23639567       4.64742877      10.37736046
Si      -1.23639566       0.66418767      12.68012325
