10
Lattice="6.773709549416661 1.1227406589331155 -7.855300924743557e-15 -1.291292094127187 6.743608260769946 -2.3172777376027425e-16 -2.7412087276447323 -3.9331744598515286 3.978410900678862" Properties=species:S:1:pos:R:3 unique_starting_index=198 config_type=initial n_minim_iter=1 energy=-1626.0283768410773 free_energy=-1626.0283768410773 pbc="T T T"
Si      -0.93438044       5.02187227       2.11150495
Si      -2.29365529       3.07154099       1.86690594
Si      -0.35691164       1.72173598       2.11150495
Si       1.00236321       3.67206726       1.86690594
Si      -3.74376642       1.16036565       3.85611140
Si       0.35671716       7.04387139       0.12229950
Si       3.74376643      -1.16036566       3.85611140
Si       5.12570031       0.82247752       0.12229950
Si       2.74120873       3.93317445      -0.00000000
Si       3.38685478       0.56137032       1.98920545
10
Lattice="6.8545284304796645 1.174936322747873 -7.97630625959695e-15 -1.2702973342525372 6.837498084047794 -2.673420657906157e-16 -2.7921155481135607 -4.00621720339783 3.679316919575303" Properties=species:S:1:pos:R:3 unique_starting_index=198 config_type=initial n_minim_iter=2 stress="-0.006412520859442098 0.0027012983309163325 1.4508429043503694e-16 0.0027012983309163325 -0.0044192691710824294 -2.4994782085329163e-17 1.4508429043503694e-16 -2.4994782085329163e-17 0.00736767186383128" pbc="T T T"
Si      -0.91874375       5.08220025       2.08124792
Si      -2.29393479       3.10903191       1.59806899
Si      -0.35155358       1.75529782       2.08124792
Si       1.02363746       3.72846616       1.59806899
Si      -3.77881779       1.16782966       3.43772745
Si       0.38848880       7.14721520       0.24158946
Si       3.77881780      -1.16782968       3.43772745
Si       5.19574231       0.86521919       0.24158946
Si       2.79211555       4.00621720      -0.00000000
Si       3.42726422       0.58746815       1.83965846
10
Lattice="6.957919797067397 1.1617246410504734 -7.923813696219412e-15 -1.318479870883517 6.929925170889025 -5.941288311931207e-16 -2.8197199630919374 -4.045824905969745 3.5528288975398103" Properties=species:S:1:pos:R:3 unique_starting_index=198 config_type=initial n_minim_iter=3 stress="-0.0034512850328549402 -0.0004693257331475102 1.6068486184896697e-16 -0.0004693257331475102 -0.003797594175862991 -2.389245438140135e-16 1.6068486184896697e-16 -2.389245438140135e-16 -0.014467495660213507" pbc="T T T"
Si      -0.95438629       5.14168652       2.04453145
Si      -2.33447664       3.16148849       1.50829744
Si      -0.36409357       1.78823864       2.04453145
Si       1.01599678       3.76843666       1.50829744
Si      -3.84305347       1.20737631       3.28471189
Si       0.35675684       7.23339925       0.26811700
Si       3.84305348      -1.20737633       3.28471189
Si       5.28268309       0.85825055       0.26811700
Si       2.81971997       4.04582490      -0.00000000
Si       3.47895990       0.58086231       1.77641445
10
Lattice="7.014558321011125 1.1648311818071584 -7.868158425965479e-15 -1.3351700359162617 6.984137820530762 4.381411335869062e-16 -2.8396941425474305 -4.074484501168954 3.570527354098184" Properties=species:S:1:pos:R:3 unique_starting_index=198 config_type=initial n_minim_iter=4 stress="0.008772914943442735 -0.001035980405576991 -4.63741121907532e-17 -0.001035980405576991 0.008008478942839261 -2.3731273369175126e-16 -4.63741121907532e-17 -2.3731273369175126e-16 0.005221189999349671" pbc="T T T"
Si      -0.96602909       5.17472107       2.06427471
Si      -2.34952495       3.18963671       1.50625263
Si      -0.36914093       1.80941673       2.06427471
Si       1.01435493       3.79450110       1.50625263
Si      -3.87642009       1.22700114       3.29151631
Si       0.34676991       7.28657001       0.27901104
Si       3.87642010      -1.22700116       3.29151631
Si       5.33261838       0.86239898       0.27901104
Si       2.83969415       4.07448449      -0.00000000
Si       3.50727917       0.58241558       1.78526367
10
Lattice="6.972123485691724 1.1659107616541173 -7.128950372710138e-15 -1.3194689371479997 6.944699815526705 5.435392059344863e-16 -2.826327274271861 -4.055305288590403 3.5695008519102576" Properties=species:S:1:pos:R:3 unique_starting_index=198 config_type=initial n_minim_iter=5 stress="0.00014562543851029375 -0.0006541223478133885 2.92847172799477e-17 -0.0006541223478133885 -0.00033704263974305244 1.9770801737934215e-17 2.92847172799477e-17 1.9770801737934215e-17 0.004886429985037973" pbc="T T T"
Si      -0.95179583       5.12061581       2.07863009
Si      -2.30720447       3.17583189       1.49087076
Si      -0.36767310       1.82408398       2.07863009
Si       0.98773555       3.76886791       1.49087076
Si      -3.85373484       1.24112860       3.27562118
Si       0.32800108       7.24121782       0.29387966
Si       3.85373485      -1.24112862       3.27562118
Si       5.32465348       0.86939274       0.29387966
Si       2.82632728       4.05530528      -0.00000000
Si       3.48606175       0.58295537       1.78475042
10
Lattice="7.001096061883568 1.1935469348235328 -7.617753111315363e-15 -1.30356959136431 6.9814473194187086 2.7130025311839264e-16 -2.8487632352596277 -4.087497127121112 3.5416454836576623" Properties=species:S:1:pos:R:3 unique_starting_index=198 config_type=initial n_minim_iter=6 stress="-0.003128172652024729 0.000856770151126944 -1.43430368757336e-16 0.000856770151126944 -0.00249597348663608 -8.132481756324058e-17 -1.43430368757336e-16 -8.132481756324058e-17 0.0025169030584188245" pbc="T T T"
Si      -0.93657855       5.11469363       2.06933432
Si      -2.27394516       3.19579701       1.47231116
Si      -0.36699103       1.86675367       2.06933432
Si       0.97037558       3.78565030       1.47231116
Si      -3.86753906       1.26998020       3.24313390
Si       0.31859078       7.27637396       0.29851158
Si       3.86753907      -1.26998022       3.24313390
Si       5.37893570       0.89862028       0.29851158
Si       2.84876324       4.08749712      -0.00000000
Si       3.50054804       0.59677346       1.77082274
10
Lattice="7.032325882915089 1.1856365775303752 -7.425984191834712e-15 -1.3218007500909341 7.008008575519483 3.506317380953287e-16 -2.855262566412076 -4.096822576524918 3.530363972030672" Properties=species:S:1:pos:R:3 unique_starting_index=198 config_type=initial n_minim_iter=7 stress="-0.0003356552226422647 -0.0006491816600566881 1.0964610800350459e-16 -0.0006491816600566881 -0.0008146776338840357 1.4312251160214658e-16 1.0964610800350459e-16 1.4312251160214658e-16 0.0009537407869640292" pbc="T T T"
Si      -0.95016809       5.12985425       2.05744146
Si      -2.28637312       3.21262430       1.47292250
Si      -0.37163265       1.87815431       2.05744146
Si       0.96457238       3.79538426       1.47292250
Si      -3.88779559       1.28533602       3.23810449
Si       0.30367200       7.29938854       0.29225948
Si       3.88779560      -1.28533604       3.23810449
Si       5.40685314       0.89425659       0.29225948
Si       2.85526257       4.09682257      -0.00000000
Si       3.51616295       0.59281828       1.76518198
10
Lattice="7.04043089180971 1.2019832158836086 -7.089252382072687e-15 -1.309270035201987 7.0212707374475105 1.9647636035022235e-16 -2.865580428303861 -4.111626976665549 3.5269147595011945" Properties=species:S:1:pos:R:3 unique_starting_index=198 config_type=initial n_minim_iter=8 stress="0.00017846049652747115 0.0005299818331718743 1.9496112792515295e-16 0.0005299818331718743 0.0005695269595243583 1.4432359587366618e-16 1.9496112792515295e-16 1.4432359587366618e-16 -0.0004241630858603305" pbc="T T T"
Si      -0.94140021       5.13974192       2.05098287
Si      -2.28229682       3.21578032       1.47593188
Si      -0.36786982       1.88152880       2.05098287
Si       0.97302680       3.80549040       1.47593188
Si      -3.88808526       1.28053719       3.23938926
Si       0.31839178       7.31612577       0.28752549
Si       3.88808527      -1.28053721       3.23938926
Si       5.41276909       0.90712817       0.28752549
Si       2.86558043       4.11162697      -0.00000000
Si       3.52021545       0.60099160       1.76345738
10
Lattice="7.037606357696367 1.195167825577789 -6.839146861030507e-15 -1.3146864509960647 7.016261747736627 1.5543253035576738e-15 -2.86145995335015 -4.105714786657194 3.5294779473352085" Properties=species:S:1:pos:R:3 unique_starting_index=198 config_type=initial n_minim_iter=9 stress="7.104692724798394e-05 -0.00021927814365613516 3.877927772178528e-16 -0.00021927814365613516 -9.075546423877137e-05 2.322162965128022e-16 3.877927772178528e-16 2.322162965128022e-16 -0.00010462885714735396" pbc="T T T"
Si      -0.94596035       5.13625386       2.05202594
Si      -2.28472329       3.21535373       1.47745200
Si      -0.36872609       1.88000787       2.05202594
Si       0.97003685       3.80090800       1.47745200
Si      -3.88752927       1.28242396       3.24219098
Si       0.31269362       7.30903887       0.28728696
Si       3.88752928      -1.28242397       3.24219098
Si       5.41022629       0.90239069       0.28728696
Si       2.86145996       4.10571478      -0.00000000
Si       3.51880318       0.59758390       1.76473897
10
Lattice="7.031237012250163 1.2036943816107208 -6.738295080583519e-15 -1.3044823075570737 7.0132374832190445 2.8477658048957498e-15 -2.863377352346544 -4.108465932414867 3.5316339921492106" Properties=species:S:1:pos:R:3 unique_starting_index=198 config_type=initial n_minim_iter=10 stress="-7.307970015291412e-05 -0.0004229268568901976 3.896207907426045e-16 -0.0004229268568901976 -0.000385151736736302 4.542829633377962e-16 3.896207907426045e-16 4.542829633377962e-16 0.0007059409492648466" pbc="T T T"
Si      -0.94178457       5.13370970       2.05519427
Si      -2.27897361       3.21506786       1.47643972
Si      -0.36269772       1.87952776       2.05519427
Si       0.97449132       3.79816961       1.47643972
Si      -3.87831623       1.27768057       3.24225671
Si       0.32225016       7.30478835       0.28937727
Si       3.87831624      -1.27768059       3.24225671
Si       5.40450455       0.91214350       0.28937727
Si       2.86337736       4.10846592      -0.00000000
Si       3.51561851       0.60184718       1.76581699
10
Lattice="7.021456872649964 1.2506357442164868 -6.830972184233501e-15 -1.2570574028446135 7.020310040528774 3.1983158326337705e-15 -2.8821997349026756 -4.135472892372615 3.532609390040539" Properties=species:S:1:pos:R:3 unique_starting_index=198 config_type=initial n_minim_iter=11 stress="-0.00017876206348562668 -0.00034530132752372944 2.781471151438388e-16 -0.00034530132752372944 -0.0004335552665171189 7.095992833339441e-16 2.781471151438388e-16 7.095992833339441e-16 0.0006492270378218886" pbc="T T T"
Si      -0.91997234       5.13688856       2.05523739
Si      -2.25558357       3.22051060       1.47737200
Si      -0.33708506       1.88342146       2.05523739
Si       0.99852618       3.79979942       1.47737200
Si      -3.84781349       1.25810359       3.24367669
Si       0.36999747       7.30995444       0.28893269
Si       3.84781350      -1.25810361       3.24367669
Si       5.39440201       0.96099133       0.28893269
Si       2.88219974       4.13547288      -0.00000000
Si       3.51072844       0.62531786       1.76630469
10
Lattice="7.024857494180072 1.2538472282134647 -6.731930429235861e-15 -1.2552215196003553 7.0246120620265495 3.636817232002511e-15 -2.884817987289858 -4.139229645119991 3.5305340219176955" Properties=species:S:1:pos:R:3 unique_starting_index=198 config_type=initial n_minim_iter=12 stress="-1.2016341872023408e-05 -4.7264119389061226e-05 5.61156438354941e-16 -4.7264119389061226e-05 -4.689189955892282e-05 9.199475202294745e-16 5.61156438354941e-16 9.199475202294745e-16 8.385094576610827e-05" pbc="T T T"
Si      -0.91839867       5.13991898       2.05320321
Si      -2.25526370       3.22174203       1.47733081
Si      -0.33682284       1.88469307       2.05320321
Si       1.00004219       3.80287002       1.47733081
Si      -3.84925159       1.25776945       3.24259782
Si       0.37243143       7.31517605       0.28793619
Si       3.84925160      -1.25776947       3.24259782
Si       5.39720455       0.96328323       0.28793619
Si       2.88481799       4.13922964      -0.00000000
Si       3.51242875       0.62692361       1.76526701
