22
Lattice="9.256427586658194 0.5049574042670929 -2.87912738866249 -3.439087125626417 8.608665017848177 2.8791273886622615 -5.335533725613998 -3.007713547193678 7.530706955404701" Properties=species:S:1:pos:R:3 unique_starting_index=6 config_type=initial n_minim_iter=1 energy=-3579.445481120034 free_energy=-3579.445481120034 pbc="T T T"
Si      -5.18638596       6.68711850       7.64145882
Si       1.28394651       2.21731018       5.09053003
Si       5.04702836       1.94520169      -0.98551969
Si      -1.03075577       1.90461294       4.32308775
Si       5.39154863      -0.40462421      -0.43895047
Si      -0.52549570       3.71201330       2.76837552
Si       2.64335678       5.97283263       3.20761920
Si      -5.69601589       2.38917051       8.51622665
Si      -1.18701480       5.93219303       3.33175328
Si       0.66217525       7.22972312       4.19233744
Si       1.65690152       4.20436508       1.98322624
Si       1.75919632       6.44200088       0.86550515
Si       0.94342083       0.63674831       3.33836951
Si       0.54503220      -1.58684669       4.19895367
Si      -0.23294907       1.30016027       6.66520180
Si      -2.21953530       0.26529153       5.54748071
Si      -2.20964234       2.33467945       1.09077579
Si       0.98207360       4.86234542       4.41200174
Si      -1.33859853      -0.06979241       3.11870521
Si      -5.72664684       4.57962790       9.31905856
Si       2.90867023       4.55681122      -0.00000000
Si       1.96044693      -1.25137807       2.32578978
22
Lattice="9.267978636658896 0.5064729712931968 -2.886160141422397 -3.442575610617853 8.619780510279636 2.8861601414221694 -5.345493031105388 -3.010245144872439 7.539628085278957" Properties=species:S:1:pos:R:3 unique_starting_index=6 config_type=initial n_minim_iter=2 stress="0.0006509385640979877 -0.00014285734488500223 0.00025132483989169144 -0.00014285734488500223 0.0005183215546222755 -0.00016042382405659017 0.00025132483989169144 -0.00016042382405659017 0.0007421261519827166" pbc="T T T"
Si      -5.19430993       6.69676252       7.65328061
Si       1.28345288       2.22192797       5.09536543
Si       5.05330735       1.94815952      -0.98821826
Si      -1.03353702       1.90831119       4.32830765
Si       5.39753678      -0.40414382      -0.44189749
Si      -0.52685974       3.71747003       2.77250762
Si       2.64598551       5.98196639       3.21132043
Si      -5.70593585       2.39357959       8.52784634
Si      -1.18870678       5.94051537       3.33720952
Si       0.66235407       7.24014414       4.19824143
Si       1.65866688       4.21056936       1.98560000
Si       1.76193314       6.45070030       0.86735527
Si       0.94283865       0.63876633       3.34138666
Si       0.54333405      -1.58740916       4.20241856
Si      -0.23616979       1.30377371       6.67227281
Si      -2.22461024       0.26697331       5.55402808
Si      -2.21197204       2.33780595       1.09333455
Si       0.98159017       4.86990333       4.41727694
Si      -1.34149888      -0.06958050       3.12235115
Si      -5.73627789       4.58741494       9.33245367
Si       2.91270151       4.56312674      -0.00000000
Si       1.96124280      -1.25188608       2.32673397
22
Lattice="9.268759539144442 0.5158691574038938 -2.9104653430704275 -3.4343815456579847 8.624444781021376 2.9104653430701988 -5.370467772204266 -3.004198097792844 7.535230759053696" Properties=species:S:1:pos:R:3 unique_starting_index=6 config_type=initial n_minim_iter=3 stress="-0.0006831028418107304 0.0003349051915919908 -0.001613495375247251 0.0003349051915919908 -0.0003722044067132986 0.0010299145054919981 -0.001613495375247251 0.0010299145054919981 -0.0008968766620692849" pbc="T T T"
Si      -5.20206427       6.70623782       7.66824911
Si       1.26956410       2.23616238       5.08269463
Si       5.05399712       1.95350356      -0.99874867
Si      -1.04328388       1.91864306       4.32620423
Si       5.39210172      -0.39530551      -0.45792921
Si      -0.53178111       3.72513701       2.77744699
Si       2.64346088       5.99758286       3.20902652
Si      -5.72635368       2.40250222       8.53397942
Si      -1.18739701       5.94919338       3.34498841
Si       0.66045722       7.25163017       4.20180655
Si       1.65834784       4.21981255       1.98461138
Si       1.76764177       6.45780617       0.87259744
Si       0.92908095       0.64792864       3.33342421
Si       0.52567929      -1.57652049       4.19024235
Si      -0.25710256       1.31799047       6.66263331
Si      -2.24106661       0.27662251       5.55061937
Si      -2.20792725       2.34128836       1.10005750
Si       0.96850698       4.88208488       4.41441533
Si      -1.34991607      -0.07027197       3.12081542
Si      -5.75160275       4.60326126       9.34563860
Si       2.91718900       4.57015697      -0.00000000
Si       1.94914588      -1.24416447       2.31238271
22
Lattice="9.26088670675497 0.5300376445387979 -2.874053335286203 -3.418215384651853 8.623268874626945 2.874053335285973 -5.34392215338316 -3.030285660680257 7.5209713406783605" Properties=species:S:1:pos:R:3 unique_starting_index=6 config_type=initial n_minim_iter=4 stress="-0.0002360040206899254 0.0014218724286195028 0.000492787672054804 0.0014218724286195028 0.0010839453980224284 -0.0003145526038456273 0.000492787672054804 -0.0003145526038456273 -0.0011436032976907767" pbc="T T T"
Si      -5.16532848       6.68612583       7.62750575
Si       1.29452113       2.22603823       5.07732028
Si       5.05343519       1.95783875      -0.98213816
Si      -1.02424966       1.91165993       4.31475101
Si       5.39108403      -0.38884968      -0.43040228
Si      -0.52277835       3.72272736       2.76751892
Si       2.66395203       5.99881291       3.20622033
Si      -5.69563922       2.37773014       8.50310950
Si      -1.16774169       5.94728604       3.32059130
Si       0.68449025       7.24393700       4.18421252
Si       1.67259430       4.21999084       1.98013424
Si       1.77550386       6.46180202       0.86068480
Si       0.93853015       0.64040135       3.33675882
Si       0.54221963      -1.58558266       4.20038004
Si      -0.23024256       1.30071657       6.66028654
Si      -2.22035726       0.26353230       5.54083710
Si      -2.19977798       2.34658087       1.07822802
Si       0.98018605       4.87327885       4.40417747
Si      -1.33627507      -0.08947348       3.11679387
Si      -5.70752137       4.58561784       9.31679666
Si       2.92133566       4.57665326      -0.00000000
Si       1.95848228      -1.25012400       2.32345900
22
Lattice="9.2626785158958 0.49694610629202707 -2.8752026025861355 -3.4489855420696007 8.61096205147791 2.8752026025859085 -5.330401713986333 -3.006968124344222 7.540286399999933" Properties=species:S:1:pos:R:3 unique_starting_index=6 config_type=initial n_minim_iter=5 stress="5.515119111344605e-05 -0.00017735088946228022 0.0001895129633241529 -0.00017735088946228022 -0.00010948678817404425 -0.00012096852144735154 0.0001895129633241529 -0.00012096852144735154 0.00016835646007762236" pbc="T T T"
Si      -5.18453631       6.68077903       7.64133820
Si       1.29263877       2.21289936       5.08948480
Si       5.04946434       1.93341665      -0.98125236
Si      -1.02822862       1.90920870       4.32427299
Si       5.39527114      -0.40586277      -0.42440100
Si      -0.53679108       3.71406447       2.77415080
Si       2.64794594       5.97209094       3.21601341
Si      -5.70259913       2.38716379       8.52153875
Si      -1.18581944       5.93512122       3.32415085
Si       0.66326191       7.21729578       4.19290534
Si       1.66159515       4.20190952       1.98524289
Si       1.75360386       6.43698768       0.86022761
Si       0.93682308       0.63324727       3.34738105
Si       0.55231697      -1.58378419       4.21613554
Si      -0.23000978       1.29372240       6.68005879
Si      -2.21860671       0.26926049       5.55504351
Si      -2.20724991       2.35177281       1.07456772
Si       0.96145120       4.85286723       4.41440082
Si      -1.33338137      -0.09174308       3.12588558
Si      -5.71691591       4.59203701       9.34092128
Si       2.90684649       4.55395408      -0.00000000
Si       1.96613840      -1.25501101       2.33254190
22
Lattice="9.266137091506621 0.4994472405407495 -2.8809207619407133 -3.44817299892637 8.615152181717685 2.880920761940486 -5.337357204444183 -3.0072371336171444 7.5418559702252015" Properties=species:S:1:pos:R:3 unique_starting_index=6 config_type=initial n_minim_iter=6 stress="-1.0100768059260504e-05 0.00023943555923504299 -0.0005269350060471909 0.00023943555923504299 0.00021217151240075286 0.00033634927902832974 -0.0005269350060471909 0.00033634927902832974 -0.00016293538345695885" pbc="T T T"
Si      -5.18254038       6.67704646       7.65028774
Si       1.28966864       2.22196256       5.08007595
Si       5.05685423       1.93583897      -0.98509478
Si      -1.03091206       1.90849097       4.32091681
Si       5.40124550      -0.40250895      -0.41914075
Si      -0.54715998       3.71822452       2.77248899
Si       2.64574031       5.97577700       3.22093915
Si      -5.71046871       2.39461765       8.52695074
Si      -1.18957162       5.94485169       3.32275918
Si       0.66537930       7.21802640       4.20130354
Si       1.66125184       4.20769176       1.98915364
Si       1.75205553       6.44183047       0.86362809
Si       0.92963884       0.63520644       3.34055243
Si       0.55576726      -1.58335993       4.21909679
Si      -0.23192072       1.29408787       6.67822787
Si      -2.22017287       0.27111450       5.55270232
Si      -2.20578447       2.36613117       1.06740847
Si       0.94579605       4.85227513       4.40948020
Si      -1.33428285      -0.10646142       3.13237576
Si      -5.71065205       4.60333247       9.35536826
Si       2.90898205       4.55729972      -0.00000000
Si       1.96438994      -1.25389494       2.33046760
22
Lattice="9.269352036938947 0.4868331613199717 -2.8754520072183545 -3.460968181717829 8.612757569838065 2.8754520072181284 -5.327957381005501 -3.0026752209181837 7.551352833853939" Properties=species:S:1:pos:R:3 unique_starting_index=6 config_type=initial n_minim_iter=7 stress="2.1960703467932284e-06 0.00029751563800830833 -0.00028393461909899983 0.00029751563800830833 0.00027838511905689376 0.00018123905857287496 -0.00028393461909899983 0.00018123905857287496 -0.00018771185408114448" pbc="T T T"
Si      -5.17756893       6.65698831       7.66617034
Si       1.28715358       2.22989082       5.07056201
Si       5.07183071       1.93204741      -0.98710113
Si      -1.03201728       1.89286639       4.31574973
Si       5.42211050      -0.40950448      -0.39466119
Si      -0.57084221       3.71645638       2.76063450
Si       2.63185290       5.95774952       3.23560310
Si      -5.71081338       2.41116771       8.53845396
Si      -1.20987354       5.95276363       3.31719735
Si       0.66277618       7.20361115       4.22267334
Si       1.65143577       4.20573586       1.99868609
Si       1.73816896       6.43779218       0.87084986
Si       0.92705922       0.63133813       3.32867949
Si       0.58089108      -1.59388188       4.23415548
Si      -0.22033736       1.28435374       6.68050297
Si      -2.20841442       0.26594925       5.55266675
Si      -2.20905057       2.39209627       1.04986734
Si       0.91999957       4.83429910       4.40225365
Si      -1.33032748      -0.13286648       3.14909919
Si      -5.68912060       4.61346899       9.37693750
Si       2.90419193       4.54979537      -0.00000000
Si       1.97069733      -1.25792103       2.33795041
22
Lattice="9.263689525769887 0.4568463516800888 -2.867350011859079 -3.485783793007575 8.594996426253413 2.867350011858857 -5.305889012710872 -2.9831604773826514 7.562714040632933" Properties=species:S:1:pos:R:3 unique_starting_index=6 config_type=initial n_minim_iter=8 stress="0.0001451073115737164 -0.0007400786536558261 0.0006047670776736843 -0.0007400786536558261 -0.0005419208416073751 -0.00038603047476644354 0.0006047670776736843 -0.00038603047476644354 0.0006175087270033715" pbc="T T T"
Si      -5.18285511       6.63721101       7.68341793
Si       1.27745263       2.22563334       5.07247876
Si       5.07508955       1.91334529      -0.98488762
Si      -1.03475434       1.87763419       4.31430143
Si       5.43873886      -0.43056830      -0.37711474
Si      -0.58930293       3.70508856       2.74664612
Si       2.61077908       5.92062065       3.24841261
Si      -5.70708086       2.42576449       8.54760166
Si      -1.23551711       5.93540546       3.31895852
Si       0.64610953       7.18077395       4.23494927
Si       1.62975255       4.18260753       1.99425531
Si       1.72819204       6.41392706       0.87668294
Si       0.93542998       0.62612050       3.32776477
Si       0.59801104      -1.60493529       4.24375552
Si      -0.21571548       1.28477127       6.68603110
Si      -2.19819567       0.25605876       5.56845873
Si      -2.21422630       2.39377885       1.04625583
Si       0.90928086       4.80916089       4.40834684
Si      -1.32654805      -0.13365779       3.15436720
Si      -5.68816259       4.61123632       9.38380822
Si       2.88895287       4.52592139      -0.00000000
Si       1.97890026      -1.26315706       2.34768201
22
Lattice="9.25237534456993 0.44203994157630133 -2.862895018103622 -3.494450531560158 8.578500120022975 2.862895018103405 -5.292143364956732 -2.9699061031335554 7.561143634051083" Properties=species:S:1:pos:R:3 unique_starting_index=6 config_type=initial n_minim_iter=9 stress="-0.00012318497020765326 0.0002462242405929501 0.00029388644762375315 0.0002462242405929501 0.00010538936367843305 -0.00018759143659044273 0.00029388644762375315 -0.00018759143659044273 -0.00028035308996854656" pbc="T T T"
Si      -5.16057577       6.59072596       7.70939747
Si       1.25887238       2.24772883       5.03314311
Si       5.09463434       1.89899489      -0.98116086
Si      -1.04328073       1.86292301       4.28853525
Si       5.46903470      -0.43967103      -0.33489450
Si      -0.63576840       3.70248418       2.71464118
Si       2.59478974       5.88864477       3.27260838
Si      -5.71458046       2.45070527       8.54230449
Si      -1.25743966       5.92869730       3.30770374
Si       0.64500418       7.15812432       4.24981886
Si       1.60309798       4.16378643       1.97745729
Si       1.73862259       6.39904737       0.88902393
Si       0.92909659       0.62883639       3.31132477
Si       0.61490179      -1.61439008       4.25343989
Si      -0.21985793       1.30122211       6.67211970
Si      -2.19029974       0.23721202       5.58368634
Si      -2.20225570       2.42676778       1.01713152
Si       0.86006947       4.77791482       4.39911715
Si      -1.32042543      -0.17819586       3.16202648
Si      -5.65820080       4.63274125       9.40690713
Si       2.87896241       4.51027003      -0.00000000
Si       1.98011599      -1.26393308       2.34912431
22
Lattice="9.256433610817536 0.4221765464520833 -2.8838003574917903 -3.5141762795175344 8.573818361985737 2.8838003574915767 -5.3019310796464 -2.946385528602762 7.575251802629142" Properties=species:S:1:pos:R:3 unique_starting_index=6 config_type=initial n_minim_iter=10 stress="0.0005532385351507677 -0.0004803979059675292 -0.0014700862984263227 -0.0004803979059675292 0.0001072766302913585 0.0009383746779212892 -0.0014700862984263227 0.0009383746779212892 0.0008598829585091875" pbc="T T T"
Si      -5.17727212       6.57687964       7.75283792
Si       1.23742709       2.26864848       5.01886148
Si       5.11295030       1.89578354      -0.97738612
Si      -1.07576360       1.85790433       4.28547675
Si       5.49130931      -0.44665834      -0.32741004
Si      -0.67081177       3.70034900       2.70621423
Si       2.57845817       5.85604355       3.28977505
Si      -5.73499236       2.48948735       8.55263792
Si      -1.27796715       5.92816829       3.31974282
Si       0.62537121       7.14974235       4.26683719
Si       1.57194792       4.15310229       1.97333332
Si       1.74029450       6.39400189       0.90953229
Si       0.91997179       0.63101988       3.30841461
Si       0.61327665      -1.60971174       4.25550898
Si      -0.23492607       1.32413496       6.66571951
Si      -2.19666384       0.22797965       5.60191848
Si      -2.20479360       2.44804675       1.00751647
Si       0.81759372       4.76809569       4.39963705
Si      -1.32123661      -0.19733706       3.17561475
Si      -5.66734461       4.65823685       9.45153569
Si       2.87112867       4.49799746      -0.00000000
Si       1.97725127      -1.26210449       2.34572572
22
Lattice="9.25071366019601 0.42258048950921795 -2.873848567079603 -3.511401687299902 8.568800130909741 2.873848567079391 -5.292069871936759 -2.94943288843781 7.57021302122316" Properties=species:S:1:pos:R:3 unique_starting_index=6 config_type=initial n_minim_iter=11 stress="0.0002896916858837896 -0.0002998215493533721 -0.0011077032309077246 -0.0002998215493533721 1.1362018731938183e-05 0.0007070609825071449 -0.0011077032309077246 0.0007070609825071449 0.000481071847181284" pbc="T T T"
Si      -5.16338176       6.55510359       7.75319279
Si       1.23726289       2.27841577       5.00538837
Si       5.12474539       1.90576901      -0.95966956
Si      -1.09172459       1.84733083       4.27586831
Si       5.50437915      -0.44533851      -0.30902391
Si      -0.68377608       3.69571462       2.69086880
Si       2.58250313       5.82945283       3.29434471
Si      -5.72103974       2.50134281       8.52988258
Si      -1.27513470       5.92461314       3.31352590
Si       0.62845859       7.14302445       4.26253684
Si       1.55670433       4.14723344       1.96514844
Si       1.75132288       6.39606701       0.91922366
Si       0.92243967       0.62794458       3.30767618
Si       0.61872064      -1.61168669       4.25668712
Si      -0.22783481       1.33196038       6.65098936
Si      -2.18570819       0.20863466       5.60506458
Si      -2.20286955       2.45997477       0.98984027
Si       0.80364334       4.76059705       4.38980228
Si      -1.31230372      -0.21619520       3.18041074
Si      -5.64469952       4.65693837       9.45422131
Si       2.86965599       4.49569031      -0.00000000
Si       1.97932189      -1.26342620       2.34818223
22
Lattice="9.244311198117323 0.42446737763539527 -2.853731418908348 -3.5069946367557043 8.563787170410134 2.853731418908138 -5.2741150893781805 -2.9586937688399213 7.56380104840149" Properties=species:S:1:pos:R:3 unique_starting_index=6 config_type=initial n_minim_iter=12 stress="1.0588171515181224e-05 -7.634933904818664e-06 -3.360199570704931e-05 -7.634933904818664e-06 3.5005268220749216e-06 2.1448578858165362e-05 -3.360199570704931e-05 2.1448578858165362e-05 1.5461654711452428e-05" pbc="T T T"
Si      -5.14181682       6.53128656       7.74447015
Si       1.24277166       2.28275142       4.99451346
Si       5.13464064       1.91653641      -0.93930819
Si      -1.10067605       1.83376112       4.26690882
Si       5.51754485      -0.44589037      -0.28444383
Si      -0.69209674       3.69097396       2.67306231
Si       2.58992277       5.80323335       3.29689223
Si      -5.69748441       2.50559070       8.50310923
Si      -1.26949340       5.92019771       3.30125132
Si       0.63717902       7.13387284       4.25540599
Si       1.54683458       4.14246894       1.95629012
Si       1.76181233       6.39603617       0.92497953
Si       0.92842201       0.62274062       3.30839505
Si       0.63029531      -1.61768959       4.26254972
Si      -0.21432424       1.33220100       6.63882152
Si      -2.16791973       0.18841546       5.60751093
Si      -2.20204855       2.47085143       0.96902060
Si       0.79688294       4.75131170       4.37823022
Si      -1.29992500      -0.23549741       3.18557082
Si      -5.61281764       4.64798847       9.44851186
Si       2.86865828       4.49412728      -0.00000000
Si       1.98509805      -1.26711319       2.35503481
22
Lattice="9.242518550596794 0.4270715958487569 -2.8322166697023023 -3.503877738590278 8.563257563516261 2.8322166697020976 -5.256642076543522 -2.9713069625583737 7.560888809102418" Properties=species:S:1:pos:R:3 unique_starting_index=6 config_type=initial n_minim_iter=13 stress="-0.00015873605123068187 0.000219073785384155 0.0008617495029078556 0.000219073785384155 4.4634033066008204e-05 -0.0005500656071030286 0.0008617495029078556 -0.0005500656071030286 -0.0002985738326054699" pbc="T T T"
Si      -5.11790068       6.51060251       7.74040165
Si       1.24686566       2.28701620       4.98473996
Si       5.14593949       1.93194217      -0.91812111
Si      -1.10999557       1.81855187       4.26276157
Si       5.53536995      -0.45039033      -0.25606782
Si      -0.70033745       3.69081603       2.65270383
Si       2.59884812       5.77783812       3.29812723
Si      -5.67079456       2.50971224       8.47900991
Si      -1.26390744       5.91993767       3.28596126
Si       0.64989237       7.12537210       4.25055759
Si       1.54054175       4.14385924       1.94540914
Si       1.77349952       6.39412248       0.93103190
Si       0.93283187       0.61808015       3.31033122
Si       0.64518067      -1.62534551       4.27492755
Si      -0.20350754       1.32938301       6.62985691
Si      -2.14653625       0.17067968       5.61547966
Si      -2.20603414       2.48637013       0.94493907
Si       0.78949713       4.74451146       4.36360872
Si      -1.28551062      -0.25767294       3.19728009
Si      -5.57647345       4.63776417       9.44816641
Si       2.86932041       4.49516458      -0.00000000
Si       1.99293824      -1.27211768       2.36433607
22
Lattice="9.249833761834362 0.41919406172870405 -2.8396575465109195 -3.5141029045907555 8.56657627403774 2.83965754651072 -5.261459136538001 -2.9650240299733666 7.571293384926823" Properties=species:S:1:pos:R:3 unique_starting_index=6 config_type=initial n_minim_iter=14 stress="-3.4265371802588816e-05 -2.953879698495841e-05 -0.0001649675467850562 -2.953879698495841e-05 -6.168676146585365e-05 0.00010530087162237829 -0.0001649675467850562 0.00010530087162237829 -1.5410343243979758e-05" pbc="T T T"
Si      -5.12088249       6.51232487       7.76647523
Si       1.23228508       2.29329599       4.98073921
Si       5.15097939       1.93079903      -0.92105680
Si      -1.11618860       1.81722293       4.26830287
Si       5.54970286      -0.46256639      -0.24910337
Si      -0.71256202       3.69843816       2.64447570
Si       2.59252305       5.77338532       3.30299051
Si      -5.67877040       2.52008535       8.49235018
Si      -1.27491170       5.92531215       3.28592886
Si       0.64775789       7.12196795       4.26272497
Si       1.53573694       4.14745626       1.93992455
Si       1.77497223       6.38623610       0.93701731
Si       0.92582572       0.62099380       3.30856842
Si       0.64987153      -1.62678127       4.28536452
Si      -0.21609801       1.33368147       6.63427607
Si      -2.14606772       0.17411880       5.63136883
Si      -2.21361789       2.50035520       0.94043062
Si       0.77382271       4.74216423       4.36009624
Si      -1.28585755      -0.26659576       3.21119714
Si      -5.57563759       4.64637490       9.47052031
Si       2.86786543       4.49288517      -0.00000000
Si       1.99418731      -1.27291498       2.36581792
22
Lattice="9.256456733649882 0.4229319419309745 -2.8343957592365925 -3.513500830951021 8.574157369697861 2.8343957592363984 -5.260636411317149 -2.97351459276704 7.574864851859818" Properties=species:S:1:pos:R:3 unique_starting_index=6 config_type=initial n_minim_iter=15 stress="0.00019477204545904225 7.131183746790933e-05 -0.00018623206543605495 7.131183746790933e-05 0.0002609720902096863 0.00011887428283108523 -0.00018623206543605495 0.00011887428283108523 0.0001492528437526653" pbc="T T T"
Si      -5.11633879       6.51966154       7.77368815
Si       1.22818543       2.29364128       4.98611849
Si       5.15240357       1.93743053      -0.91092331
Si      -1.12010237       1.82014597       4.27424191
Si       5.55918778      -0.47089229      -0.24564940
Si      -0.70639544       3.70473892       2.63557246
Si       2.60486994       5.77389438       3.30062294
Si      -5.67253215       2.51567857       8.48578815
Si      -1.26821308       5.93237499       3.28252357
Si       0.65271094       7.12339852       4.26087870
Si       1.53408049       4.15204588       1.93652298
Si       1.78346253       6.39321516       0.94088298
Si       0.92586074       0.61759820       3.31398615
Si       0.65428039      -1.62622226       4.29234128
Si      -0.21251946       1.33583036       6.63398187
Si      -2.14038457       0.16605805       5.63834187
Si      -2.22441265       2.50925764       0.93718201
Si       0.77821967       4.74531100       4.34977872
Si      -1.28403173      -0.26977321       3.22508613
Si      -5.56159303       4.63942208       9.47207860
Si       2.87147795       4.49854466      -0.00000000
Si       1.99791016      -1.27529132       2.37023455
22
Lattice="9.256596033787813 0.4139382159017998 -2.8260568600370215 -3.5217172639576124 8.570497213818054 2.8260568600368314 -5.249568848210468 -2.9716743492911832 7.5798212924280115" Properties=species:S:1:pos:R:3 unique_starting_index=6 config_type=initial n_minim_iter=16 stress="0.0002836634772035414 5.71307517682708e-05 -1.0870937923128128e-05 5.71307517682708e-05 0.000336698968334463 6.9390571740864194e-06 -1.0870937923128128e-05 6.9390571740864194e-06 0.00024719619845180575" pbc="T T T"
Si      -5.10877298       6.50691559       7.78610732
Si       1.22144680       2.29695443       4.98122216
Si       5.15814033       1.93259339      -0.90098617
Si      -1.12495510       1.81551402       4.27176015
Si       5.57623692      -0.48276319      -0.22745773
Si      -0.71829089       3.70441534       2.61977083
Si       2.60570202       5.75672894       3.30806114
Si      -5.66826740       2.52068583       8.48080746
Si      -1.27403526       5.93206361       3.27614807
Si       0.65183451       7.11017609       4.26561879
Si       1.52309433       4.14542683       1.93203173
Si       1.78535347       6.38783020       0.94658205
Si       0.92530384       0.61307662       3.31420250
Si       0.66751675      -1.62979414       4.30367322
Si      -0.20713246       1.33711862       6.63323924
Si      -2.13069549       0.15514653       5.64778956
Si      -2.23133225       2.52582660       0.92533511
Si       0.76571285       4.73223735       4.33998768
Si      -1.27955708      -0.28478153       3.23983361
Si      -5.54079972       4.63830154       9.48054304
Si       2.86743939       4.49221772      -0.00000000
Si       2.00351359      -1.27886806       2.37688221
22
Lattice="9.25629690233208 0.4076789834027994 -2.8214470681262 -3.5272687796576925 8.567590644614313 2.8214470681260146 -5.242757854413814 -2.9695717208863486 7.582936893470922" Properties=species:S:1:pos:R:3 unique_starting_index=6 config_type=initial n_minim_iter=17 stress="-2.712287336166074e-05 3.704214107643889e-06 5.396371385311089e-05 3.704214107643889e-06 -2.3684185649894772e-05 -3.44457210821117e-05 5.396371385311089e-05 -3.44457210821117e-05 -2.9487333435575877e-05" pbc="T T T"
Si      -5.10530058       6.49945012       7.79298949
Si       1.21772712       2.29812756       4.97888825
Si       5.15986991       1.92752949      -0.89580892
Si      -1.12656282       1.81404996       4.27069325
Si       5.58537893      -0.48979983      -0.21739843
Si      -0.72526493       3.70361797       2.61139446
Si       2.60601127       5.74759108       3.31224364
Si      -5.66677782       2.52222530       8.47874581
Si      -1.27769600       5.93206557       3.27174925
Si       0.65075057       7.10030238       4.26870553
Si       1.51858589       4.14150820       1.93123653
Si       1.78325546       6.38306545       0.94827390
Si       0.92361521       0.61003905       3.31423136
Si       0.67587075      -1.63101117       4.31118765
Si      -0.20376005       1.33531221       6.63466300
Si      -2.12554076       0.15150996       5.65170036
Si      -2.23735196       2.53659760       0.91951833
Si       0.75862786       4.72338108       4.33223389
Si      -1.27779629      -0.29283400       3.25070300
Si      -5.52723597       4.63657217       9.48486563
Si       2.86451406       4.48763482      -0.00000000
Si       2.00676952      -1.28094636       2.38074491
22
Lattice="9.256660302895796 0.39869389559174223 -2.816774538709271 -3.5355717273557308 8.5641373965106 2.816774538709095 -5.2348495279669205 -2.965866581046867 7.588077584637825" Properties=species:S:1:pos:R:3 unique_starting_index=6 config_type=initial n_minim_iter=18 stress="-0.0002649135722813636 -2.4896633410830626e-05 0.00011295179606288899 -2.4896633410830626e-05 -0.0002880255590882384 -7.209856003653758e-05 0.00011295179606288899 -7.209856003653758e-05 -0.0002490217642432641" pbc="T T T"
Si      -5.10214694       6.48730936       7.80580580
Si       1.21188064       2.30323407       4.97437026
Si       5.16374283       1.92096661      -0.88706074
Si      -1.13211277       1.81293019       4.26903828
Si       5.60074399      -0.49823291      -0.20306722
Si      -0.73799960       3.70161892       2.59904632
Si       2.60730097       5.73335235       3.31903930
Si      -5.66645294       2.52668030       8.47513832
Si      -1.28295354       5.93191238       3.26612367
Si       0.64914440       7.08733051       4.27305478
Si       1.51297953       4.13603830       1.92991294
Si       1.78053533       6.37634400       0.95005653
Si       0.92043359       0.60682594       3.31502280
Si       0.68585364      -1.63213939       4.32195391
Si      -0.20080321       1.33372021       6.63802105
Si      -2.12023356       0.14782693       5.65816464
Si      -2.24884819       2.55350826       0.91288354
Si       0.74866269       4.71141637       4.31858554
Si      -1.27654509      -0.30320514       3.26949204
Si      -5.50745162       4.63351605       9.49196858
Si       2.86054429       4.48141565      -0.00000000
Si       2.01090539      -1.28358634       2.38565152
22
Lattice="9.257964502616565 0.4030965714220705 -2.8252257805724676 -3.5321273572584992 8.567173974520768 2.8252257805722993 -5.244347504715729 -2.96503906536539 7.586808082418469" Properties=species:S:1:pos:R:3 unique_starting_index=6 config_type=initial n_minim_iter=19 stress="-0.0001280271932280966 -0.00010573764448425766 -3.9627930415856866e-05 -0.00010573764448425766 -0.0002261853258271877 2.529500920199133e-05 -3.9627930415856866e-05 2.529500920199133e-05 -6.053350757533795e-05" pbc="T T T"
Si      -5.11166533       6.49708371       7.80519733
Si       1.21202031       2.30468144       4.97920126
Si       5.15864224       1.92320988      -0.88986247
Si      -1.13404136       1.82040888       4.27327513
Si       5.59380425      -0.49226667      -0.21761896
Si      -0.73117995       3.70096449       2.60683653
Si       2.61014711       5.74301844       3.31353295
Si      -5.67176871       2.52382577       8.47667055
Si      -1.27874381       5.92978759       3.27221824
Si       0.64850072       7.09764937       4.26836310
Si       1.52024796       4.13818965       1.93061086
Si       1.78161577       6.37933379       0.94508738
Si       0.92056637       0.61141402       3.31844498
Si       0.67265600      -1.62838800       4.31458984
Si      -0.20804417       1.33678649       6.64172070
Si      -2.13084027       0.15615304       5.65619722
Si      -2.25202741       2.54335130       0.92676066
Si       0.76113735       4.72087510       4.32010111
Si      -1.28271554      -0.28708016       3.26670697
Si      -5.52137962       4.63022017       9.48527320
Si       2.86291857       4.48513528      -0.00000000
Si       2.00680850      -1.28097124       2.38079115
22
Lattice="9.257853631250033 0.4035003843717811 -2.8244302916786057 -3.5317143988568995 8.567243420304083 2.8244302916784423 -5.243828017497799 -2.965703702981213 7.586497357767754" Properties=species:S:1:pos:R:3 unique_starting_index=6 config_type=initial n_minim_iter=20 stress="5.7130407369890394e-05 1.0706902714558935e-05 -2.4303105672766928e-05 1.0706902714558935e-05 6.706981523441073e-05 1.5512979740389234e-05 -2.4303105672766928e-05 1.5512979740389234e-05 5.029606196322617e-05" pbc="T T T"
Si      -5.10996475       6.49474872       7.80706357
Si       1.21090303       2.30697715       4.97730697
Si       5.15963302       1.92442655      -0.88755765
Si      -1.13600117       1.82014381       4.27278388
Si       5.59676559      -0.49257439      -0.21523991
Si      -0.73308145       3.70092875       2.60386408
Si       2.61155336       5.74093781       3.31371348
Si      -5.67056278       2.52457206       8.47405500
Si      -1.27877228       5.92952095       3.27135726
Si       0.64965772       7.09786174       4.26824364
Si       1.51906998       4.13770386       1.92933851
Si       1.78355167       6.38000188       0.94581894
Si       0.92079138       0.61188825       3.31825372
Si       0.67294562      -1.62919072       4.31514009
Si      -0.20773374       1.33815910       6.64067841
Si      -2.13026548       0.15421539       5.65715884
Si      -2.25261248       2.54551786       0.92523818
Si       0.75986238       4.72022887       4.31813152
Si      -1.28224543      -0.28917333       3.26836584
Si      -5.51823567       4.63000644       9.48568947
Si       2.86306962       4.48537191      -0.00000000
Si       2.00701281      -1.28110166       2.38103353
22
Lattice="9.25625513373276 0.4024517715249376 -2.822243825105581 -3.531992552104257 8.565352015010035 2.822243825105425 -5.2410466832997145 -2.9654101097482264 7.585714157676869" Properties=species:S:1:pos:R:3 unique_starting_index=6 config_type=initial n_minim_iter=21 stress="0.00019948857844283107 0.00016579386518698785 3.503785323655199e-05 0.00016579386518698785 0.0003533979669066647 -2.23651048749807e-05 3.503785323655199e-05 -2.23651048749807e-05 9.366024866152237e-05" pbc="T T T"
Si      -5.10818768       6.49075285       7.80975677
Si       1.20833217       2.30941075       4.97584556
Si       5.15665408       1.92415822      -0.88258723
Si      -1.13830206       1.82171336       4.27436730
Si       5.60123821      -0.49463673      -0.21237523
Si      -0.73495091       3.69926050       2.59820121
Si       2.61485042       5.73686516       3.31134685
Si      -5.66677065       2.52205063       8.46830138
Si      -1.27959891       5.92625728       3.26938741
Si       0.65116095       7.09655562       4.26718442
Si       1.51823594       4.13452333       1.92832241
Si       1.78421542       6.37915320       0.94481070
Si       0.92175511       0.61299545       3.31852974
Si       0.67311466      -1.63102099       4.31632674
Si      -0.20600165       1.33869743       6.64090346
Si      -2.13001791       0.15241341       5.65739175
Si      -2.25513818       2.54795383       0.92420111
Si       0.75951929       4.71755512       4.31390870
Si      -1.28174488      -0.29031663       3.27180546
Si      -5.51245957       4.62714327       9.48375687
Si       2.86213129       4.48390190      -0.00000000
Si       2.00760423      -1.28147917       2.38173516
