6
Lattice="4.872809999999999 -8.115005734584052e-16 8.865434792667951e-16 -0.3429328050542672 4.860727763135641 1.1432879317423401e-16 -0.3429328050542673 -0.3679797342579449 4.846778858426807" Properties=species:S:1:pos:R:3 unique_starting_index=164 config_type=initial n_minim_iter=1 pbc="T T T"
Si       1.34461399       2.45287147       2.92407332
Si       2.35215989       2.80107237       1.73092675
Si       2.62858956       1.53340784       2.66719841
Si       3.40351893       4.49640873       0.32254005
Si       4.24573100       0.04063488       3.72528949
Si      -0.25826685       3.39375782       4.50792311
6
Lattice="4.898008174808796 -0.009646995244233549 -0.010407183375641943 -0.35432924743225946 4.885184533814983 -0.010407183375643362 -0.3543292474322603 -0.38020854344718524 4.870377572876738" Properties=species:S:1:pos:R:3 unique_starting_index=164 config_type=initial n_minim_iter=2 pbc="T T T"
Si       1.33732392       2.45625618       2.93077960
Si       2.35604926       2.80829190       1.72442084
Si       2.63551747       1.52658842       2.67108110
Si       3.41044621       4.51097752       0.30742708
Si       4.25977615       0.02496454       3.73205801
Si      -0.27488680       3.39952976       4.52130597
6
Lattice="5.1284774498279235 -0.10008598466357736 -0.10797281115572083 -0.46076368294311887 5.108717548093679 -0.10797281115572173 -0.46076368294311915 -0.4944166761132414 5.0858829385398066" Properties=species:S:1:pos:R:3 unique_starting_index=164 config_type=initial n_minim_iter=3 pbc="T T T"
Si       1.26732436       2.48513653       2.99027636
Si       2.38978434       2.87275021       1.66132609
Si       2.69744178       1.46078374       2.70438275
Si       3.47018508       4.64222314       0.16633274
Si       4.38649211      -0.12093546       3.79000638
Si      -0.42934289       3.44851997       4.64149345
6
Lattice="5.250913473655212 -0.136494387565928 -0.1472502147229718 -0.5056984667515723 5.228287682059583 -0.1472502147229723 -0.5056984667515719 -0.5426333808468594 5.202136457851008" Properties=species:S:1:pos:R:3 unique_starting_index=164 config_type=initial n_minim_iter=4 pbc="T T T"
Si       1.25011815       2.51118873       3.03120470
Si       2.41698286       2.91472165       1.64913847
Si       2.73739501       1.44635353       2.73345866
Si       3.50982432       4.72178522       0.11538570
Si       4.46306724      -0.17515363       3.83116020
Si      -0.48881574       3.48406183       4.71697029
6
Lattice="6.446143822357243 -0.6531692841078759 -0.7046393558773961 -1.105208751433934 6.384192502421143 -0.7046393558773965 -1.105208751433934 -1.1859303532884753 6.312527206038061" Properties=species:S:1:pos:R:3 unique_starting_index=164 config_type=initial n_minim_iter=5 pbc="T T T"
Si       0.82032499       2.61643035       3.30868477
Si       2.55221101       3.22330138       1.25003316
Si       3.03569269       1.03653745       2.85940480
Si       3.74820984       5.35108583      -0.69011603
Si       5.07403067      -0.99969876       4.05145307
Si      -1.35431405       3.66197748       5.28348476
6
Lattice="5.791839323908284 -0.5447639793241438 -0.5876916579450991 -0.9510243790397301 5.739139585130473 -0.5876916579451003 -0.9510243790397315 -1.0204847512809072 5.678178892464816" Properties=species:S:1:pos:R:3 unique_starting_index=164 config_type=initial n_minim_iter=6 pbc="T T T"
Si       0.79777323       2.39360328       3.01549201
Si       2.33152357       2.93384023       1.18976896
Si       2.76248054       0.99465404       2.61502112
Si       3.41808482       4.84031127      -0.55160871
Si       4.58775573      -0.83393756       3.69773375
Si      -1.15474138       3.34511208       4.78466162
6
Lattice="5.0548212772929295 -0.47499109842252 -0.5124206385440855 -0.8295555252543589 5.008859383080538 -0.5124206385440856 -0.8295555252543587 -0.890144125135546 4.9556927534671225" Properties=species:S:1:pos:R:3 unique_starting_index=164 config_type=initial n_minim_iter=7 pbc="T T T"
Si       0.69169433       2.09268297       2.64788425
Si       2.03881489       2.57690141       1.03531009
Si       2.42702666       0.86464461       2.28713475
Si       2.98477762       4.21441185      -0.48621616
Si       3.99390302      -0.73267592       3.22776945
Si      -1.01193737       2.92080289       4.16550887
6
Lattice="5.3397635074630445 -0.6550312507788235 -0.7066480464689537 -1.0292025883058866 5.280424441970115 -0.7066480464689536 -1.0292025883058857 -1.1043728956827537 5.211774578415215" Properties=species:S:1:pos:R:3 unique_starting_index=164 config_type=initial n_minim_iter=8 pbc="T T T"
Si       0.52071696       2.05431299       2.65639124
Si       2.01257289       2.59850011       0.86319752
Si       2.45041863       0.69489260       2.24951890
Si       2.98047347       4.31560800      -0.77816782
Si       4.09515116      -1.02400389       3.20848762
Si      -1.30966850       2.89548259       4.24431251
6
Lattice="5.28148027320065 -0.6845523201693698 -0.7384953911409818 -1.054548671689158 5.220208123657098 -0.7384953911409835 -1.0545486716891583 -1.1315701917430705 5.149320071445413" Properties=species:S:1:pos:R:3 unique_starting_index=164 config_type=initial n_minim_iter=9 pbc="T T T"
Si       0.46889510       1.99333340       2.59216663
Si       1.95539156       2.53869813       0.80251116
Si       2.39478917       0.63901716       2.18385220
Si       2.90773612       4.23544448      -0.83442660
Si       4.02030543      -1.07418122       3.12625433
Si      -1.35445401       2.81940474       4.16011999
6
Lattice="5.238980552906331 -0.7256557523680173 -0.7828377947008236 -1.09255919246743 5.174921054048118 -0.7828377947008264 -1.0925591924674305 -1.1723569031012366 5.100806036323417" Properties=species:S:1:pos:R:3 unique_starting_index=164 config_type=initial n_minim_iter=10 pbc="T T T"
Si       0.40309332       1.92754259       2.52731727
Si       1.89439480       2.47935454       0.72753464
Si       2.33988548       0.56917827       2.11334080
Si       2.83173069       4.15985059      -0.90637516
Si       3.95024800      -1.13978086       3.03990329
Si      -1.41496058       2.73894154       4.07929620
