16
Lattice="6.93557 -2.600422238959025e-32 -4.2468118003812044e-16 4.757586185601859e-48 6.953220000000002 -4.257619308383681e-16 4.2649916821145455e-16 4.2649916821145475e-16 6.96526" Properties=species:S:1:pos:R:3 unique_starting_index=98 config_type=initial n_minim_iter=1 pbc="T T T"
Si       2.27977734       4.41491575       1.09315716
Si       4.65579266       0.93830575       5.87210284
Si       5.74756234       6.01491425       5.87210284
Si       1.18800766       2.53830425       1.09315716
Si       4.65579266       2.53830425       5.87210284
Si       2.27977734       6.01491425       1.09315716
Si       1.18800766       0.93830575       1.09315716
Si       5.74756234       4.41491575       5.87210284
Si       2.68170195       4.41491575       3.48532834
Si       4.25386805       0.93830575       3.47993166
Si       6.14948695       6.01491425       3.47993166
Si       0.78608305       2.53830425       3.48532834
Si       4.25386805       2.53830425       3.47993166
Si       2.68170195       6.01491425       3.48532834
Si       0.78608305       0.93830575       3.48532834
Si       6.14948695       4.41491575       3.47993166
16
Lattice="6.931138565407755 -2.6771386920399245e-32 -4.244035442814103e-16 -6.203762147851521e-35 7.158350677587466 -4.264967397849832e-16 4.272415651004471e-16 4.390815492328672e-16 6.977281120238304" Properties=species:S:1:pos:R:3 unique_starting_index=98 config_type=initial n_minim_iter=2 pbc="T T T"
Si       2.27837788       4.54295608       1.09491131
Si       4.65276068       0.96378074       5.88236982
Si       5.74394716       6.19456994       5.88236982
Si       1.18719140       2.61539460       1.09491131
Si       4.65276068       2.61539460       5.88236982
Si       2.27837788       6.19456994       1.09491131
Si       1.18719140       0.96378074       1.09491131
Si       5.74394716       4.54295608       5.88236982
Si       2.67999442       4.54281886       3.49143673
Si       4.25114414       0.96364352       3.48584439
Si       6.14556371       6.19470716       3.48584439
Si       0.78557486       2.61553182       3.49143673
Si       4.25114414       2.61553182       3.48584439
Si       2.67999442       6.19470716       3.49143673
Si       0.78557486       0.96364352       3.49143673
Si       6.14556371       4.54281886       3.48584439
16
Lattice="6.910981831899684 -2.8254749487283135e-32 -4.2315995762381385e-16 -2.28536547503373e-34 7.555580820944474 -4.2800378698728987e-16 4.287606272729504e-16 4.634469980077198e-16 7.0019356861730015" Properties=species:S:1:pos:R:3 unique_starting_index=98 config_type=initial n_minim_iter=3 pbc="T T T"
Si       2.27184417       4.79036380       1.09846617
Si       4.63913766       1.01257339       5.90346951
Si       5.72733509       6.54300743       5.90346951
Si       1.18364675       2.76521702       1.09846617
Si       4.63913766       2.76521702       5.90346951
Si       2.27184417       6.54300743       1.09846617
Si       1.18364675       1.01257339       1.09846617
Si       5.72733509       4.79036380       5.90346951
Si       2.67220303       4.79033801       3.50396916
Si       4.23877880       1.01254760       3.49796653
Si       6.12769394       6.54303322       3.49796653
Si       0.78328789       2.76524281       3.50396916
Si       4.23877880       2.76524281       3.49796653
Si       2.67220303       6.54303322       3.50396916
Si       0.78328789       1.01254760       3.50396916
Si       6.12769394       4.79033801       3.49796653
16
Lattice="6.940001870009247 -3.7463157791548953e-32 -4.249511727011899e-16 -1.8632901432622707e-34 7.78697931047558 -2.9603233239295525e-16 4.3185771711750664e-16 6.160994338051004e-16 7.052746536810576" Properties=species:S:1:pos:R:3 unique_starting_index=98 config_type=initial n_minim_iter=4 pbc="T T T"
Si       2.28138802       4.93410344       1.10641097
Si       4.65861385       1.04061378       5.94633557
Si       5.75138896       6.74636553       5.94633557
Si       1.18861291       2.85287587       1.10641097
Si       4.65861385       2.85287587       5.94633557
Si       2.28138802       6.74636553       1.10641097
Si       1.18861291       1.04061378       1.10641097
Si       5.75138896       4.93410344       5.94633557
Si       2.68347088       4.93434868       3.52905882
Si       4.25653099       1.04085903       3.52368772
Si       6.15347181       6.74612028       3.52368772
Si       0.78653006       2.85263063       3.52905882
Si       4.25653099       2.85263063       3.52368772
Si       2.68347088       6.74612028       3.52905882
Si       0.78653006       1.04085903       3.52905882
Si       6.15347181       4.93434868       3.52368772
16
Lattice="7.303921421083745 -1.7090352987150388e-31 -4.470908615807039e-16 -5.773702475346339e-34 18.84649854307561 9.959873293267101e-16 4.664137000802863e-16 2.8090026351048436e-15 7.614649891692116" Properties=species:S:1:pos:R:3 unique_starting_index=98 config_type=initial n_minim_iter=5 pbc="T T T"
Si       2.40179126      11.72515974       1.19379449
Si       4.90213016       2.30191047       6.42085541
Si       6.05375197      16.54458807       6.42085541
Si       1.25016945       7.12133880       1.19379449
Si       4.90213016       7.12133880       6.42085541
Si       2.40179126      16.54458807       1.19379449
Si       1.25016945       2.30191047       1.19379449
Si       6.05375197      11.72515974       6.42085541
Si       2.82541238      11.73590987       3.80122487
Si       4.47850904       2.31266059       3.81342503
Si       6.47737309      16.53383795       3.81342503
Si       0.82654833       7.11058868       3.80122487
Si       4.47850904       7.11058868       3.81342503
Si       2.82541238      16.53383795       3.80122487
Si       0.82654833       2.31266059       3.80122487
Si       6.47737309      11.73590987       3.81342503
16
Lattice="5.717248156555532 2.839399117079566e-30 -3.532973537786723e-16 -1.103265936138058e-33 17.456497119732624 -4.5333759652445145e-14 3.4141643888649604e-16 -4.728787414961149e-14 5.630924657102468" Properties=species:S:1:pos:R:3 unique_starting_index=98 config_type=initial n_minim_iter=6 pbc="T T T"
Si       1.88044013      10.86016129       0.89111919
Si       3.83680802       2.13191273       4.73980547
Si       4.73906421      15.32458439       4.73980547
Si       0.97818395       6.59633583       0.89111919
Si       3.83680802       6.59633583       4.73980547
Si       1.88044013      15.32458439       0.89111919
Si       0.97818395       2.13191273       0.89111919
Si       4.73906421      10.86016129       4.73980547
Si       2.21094688      10.86902569       2.80466334
Si       3.50630127       2.14077713       2.82626132
Si       5.06957096      15.31571999       2.82626132
Si       0.64767720       6.58747143       2.80466334
Si       3.50630127       6.58747143       2.82626132
Si       2.21094688      15.31571999       2.80466334
Si       0.64767720       2.14077713       2.80466334
Si       5.06957096      10.86902569       2.82626132
16
Lattice="5.001445443362677 4.926266129757547e-30 -3.1394048549291795e-16 2.846082603563793e-32 17.06863754340899 -6.8796809587075e-14 3.9022937897163702e-16 -5.217563692710284e-14 6.477338898272845" Properties=species:S:1:pos:R:3 unique_starting_index=98 config_type=initial n_minim_iter=7 pbc="T T T"
Si       1.64311066      10.61950467       1.01513875
Si       3.35833478       2.08518590       5.46220015
Si       4.14383338      14.98345164       5.46220015
Si       0.85761206       6.44913287       1.01513875
Si       3.35833478       6.44913287       5.46220015
Si       1.64311066      14.98345164       1.01513875
Si       0.85761206       2.08518590       1.01513875
Si       4.14383338      10.61950467       5.46220015
Si       1.93593344      10.62708555       3.23646353
Si       3.06551200       2.09276678       3.24087537
Si       4.43665617      14.97587076       3.24087537
Si       0.56478928       6.44155199       3.23646353
Si       3.06551200       6.44155199       3.24087537
Si       1.93593344      14.97587076       3.23646353
Si       0.56478928       2.09276678       3.23646353
Si       4.43665617      10.62708555       3.24087537
16
Lattice="4.6069323252492795 5.9798698297382e-30 -2.718010987645887e-16 -4.059198858807547e-31 16.397423770894697 -8.332887596460026e-14 3.922742390996887e-16 -6.738880429672524e-14 6.222729357834952" Properties=species:S:1:pos:R:3 unique_starting_index=98 config_type=initial n_minim_iter=8 pbc="T T T"
Si       1.51310687      10.20058873       0.97299090
Si       3.09382546       2.00187684       5.24973846
Si       3.81657303      14.39554693       5.24973846
Si       0.79035929       6.19683504       0.97299090
Si       3.09382546       6.19683504       5.24973846
Si       1.51310687      14.39554693       0.97299090
Si       0.79035929       2.00187684       0.97299090
Si       3.81657303      10.20058873       5.24973846
Si       1.78364387      10.20689969       3.10971543
Si       2.82328846       2.00818781       3.11301393
Si       4.08711003      14.38923597       3.11301393
Si       0.51982229       6.19052408       3.10971543
Si       2.82328846       6.19052408       3.11301393
Si       1.78364387      14.38923597       3.10971543
Si       0.51982229       2.00818781       3.10971543
Si       4.08711003      10.20689969       3.11301393
16
Lattice="4.390075507387656 1.4125057487989055e-29 -2.2275682711388934e-16 5.664092517951861e-30 15.386622913998075 -1.0762595433959204e-13 4.2776274331823944e-16 -8.185532085087926e-14 6.243652257153177" Properties=species:S:1:pos:R:3 unique_starting_index=98 config_type=initial n_minim_iter=9 pbc="T T T"
Si       1.44135346       9.57081155       0.97113493
Si       2.94872204       1.87750009       5.27251733
Si       3.63639122      13.50912282       5.27251733
Si       0.75368429       5.81581136       0.97113493
Si       2.94872204       5.81581136       5.27251733
Si       1.44135346      13.50912282       0.97113493
Si       0.75368429       1.87750009       0.97113493
Si       3.63639122       9.57081155       5.27251733
Si       1.70025251       9.57600838       3.12270624
Si       2.68982300       1.88269693       3.12094601
Si       3.89529026      13.50392599       3.12094601
Si       0.49478524       5.81061453       3.12270624
Si       2.68982300       5.81061453       3.12094601
Si       1.70025251      13.50392599       3.12270624
Si       0.49478524       1.88269693       3.12270624
Si       3.89529026       9.57600838       3.12094601
16
Lattice="4.4250651965569965 -5.668268520529434e-29 -1.7810356507568164e-16 -6.86068349181967e-29 14.637610528599618 -1.3146808276132057e-13 4.805416036342101e-16 -9.434074551148838e-14 6.347353819669113" Properties=species:S:1:pos:R:3 unique_starting_index=98 config_type=initial n_minim_iter=10 pbc="T T T"
Si       1.45240382       9.10408558       0.98166808
Si       2.97266137       1.78528031       5.36568574
Si       3.66493642      12.85233022       5.36568574
Si       0.76012877       5.53352495       0.98166808
Si       2.97266137       5.53352495       5.36568574
Si       1.45240382      12.85233022       0.98166808
Si       0.76012877       1.78528031       0.98166808
Si       3.66493642       9.10408558       5.36568574
Si       1.71423592       9.10956284       3.17707013
Si       2.71082928       1.79075757       3.17028369
Si       3.92676851      12.84685296       3.17028369
Si       0.49829668       5.52804769       3.17707013
Si       2.71082928       5.52804769       3.17028369
Si       1.71423592      12.84685296       3.17707013
Si       0.49829668       1.79075757       3.17707013
Si       3.92676851       9.10956284       3.17028369
16
Lattice="4.460367401434412 6.216530052981208e-28 -1.3617723550161563e-16 6.287177244744471e-28 13.396582927860976 -1.648846472933132e-13 5.260692878118065e-16 -1.1147563585030111e-13 6.357939722013928" Properties=species:S:1:pos:R:3 unique_starting_index=98 config_type=initial n_minim_iter=11 pbc="T T T"
Si       1.46315530       8.33112332       0.97349491
Si       2.99721210       1.63283186       5.38444481
Si       3.69333900      11.76375107       5.38444481
Si       0.76702840       5.06545961       0.97349491
Si       2.99721210       5.06545961       5.38444481
Si       1.46315530      11.76375107       0.97349491
Si       0.76702840       1.63283186       0.97349491
Si       3.69333900       8.33112332       5.38444481
Si       1.72872378       8.33804299       3.18620910
Si       2.73164363       1.63975152       3.17173063
Si       3.95890748      11.75683140       3.17173063
Si       0.50145992       5.05853994       3.18620910
Si       2.73164363       5.05853994       3.17173063
Si       1.72872378      11.75683140       3.18620910
Si       0.50145992       1.63975152       3.18620910
Si       3.95890748       8.33804299       3.17173063
16
Lattice="4.676683807240923 -3.060101941714914e-27 -9.859572539034015e-17 -3.362392802567027e-27 11.116418073831621 -2.1613191947528266e-13 5.918903611776677e-16 -1.2040663626281255e-13 6.566389816082577" Properties=species:S:1:pos:R:3 unique_starting_index=98 config_type=initial n_minim_iter=12 pbc="T T T"
Si       1.53223133       6.91342325       0.98439863
Si       3.14445248       1.35521421       5.58199119
Si       3.87057323       9.76120386       5.58199119
Si       0.80611058       4.20299483       0.98439863
Si       3.14445248       4.20299483       5.58199119
Si       1.53223133       9.76120386       0.98439863
Si       0.80611058       1.35521421       0.98439863
Si       3.87057323       6.91342325       5.58199119
Si       1.81410520       6.92549953       3.29980169
Si       2.86257861       1.36729049       3.26658812
Si       4.15244710       9.74912758       3.26658812
Si       0.52423671       4.19091855       3.29980169
Si       2.86257861       4.19091855       3.26658812
Si       1.81410520       9.74912758       3.29980169
Si       0.52423671       1.36729049       3.29980169
Si       4.15244710       6.92549953       3.26658812
16
Lattice="4.674039958430505 6.251043623057207e-27 -6.642003232879105e-17 5.982467674537862e-27 11.064475780761244 -2.2620413028508707e-13 6.236102337711158e-16 -1.300406680202117e-13 6.557215409821183" Properties=species:S:1:pos:R:3 unique_starting_index=98 config_type=initial n_minim_iter=13 pbc="T T T"
Si       1.53133517       6.88110894       0.98278004
Si       3.14270478       1.34887105       5.57443537
Si       3.86835515       9.71560473       5.57443537
Si       0.80568481       4.18336684       0.98278004
Si       3.14270478       4.18336684       5.57443537
Si       1.53133517       9.71560473       0.98278004
Si       0.80568481       1.34887105       0.98278004
Si       3.86835515       6.88110894       5.57443537
Si       1.81309808       6.89323982       3.29528517
Si       2.86094188       1.36100193       3.26193024
Si       4.15011806       9.70347385       3.26193024
Si       0.52392190       4.17123596       3.29528517
Si       2.86094188       4.17123596       3.26193024
Si       1.81309808       9.70347385       3.29528517
Si       0.52392190       1.36100193       3.29528517
Si       4.15011806       6.89323982       3.26193024
16
Lattice="4.621266473831942 -8.604087360999415e-27 -3.933693877924556e-17 -9.275426152652502e-27 9.94653401183167 -2.399713147777529e-13 6.390421185564632e-16 -1.3283877010648183e-13 6.363992661382438" Properties=species:S:1:pos:R:3 unique_starting_index=98 config_type=initial n_minim_iter=14 pbc="T T T"
Si       1.51336097       6.18562620       0.94822978
Si       3.10790550       1.21235919       5.41576288
Si       3.82399421       8.73417482       5.41576288
Si       0.79727226       3.76090782       0.94822978
Si       3.10790550       3.76090782       5.41576288
Si       1.51336097       8.73417482       0.94822978
Si       0.79727226       1.21235919       0.94822978
Si       3.82399421       6.18562620       5.41576288
Si       1.79305177       6.19876765       3.20038925
Si       2.82821471       1.22550065       3.16360342
Si       4.10368500       8.72103337       3.16360342
Si       0.51758147       3.74776636       3.20038925
Si       2.82821471       3.74776636       3.16360342
Si       1.79305177       8.72103337       3.20038925
Si       0.51758147       1.22550065       3.20038925
Si       4.10368500       6.19876765       3.16360342
16
Lattice="4.75271765222952 5.708859386161162e-27 1.1573934711941306e-17 5.176413130615236e-27 9.830961723379742 -2.539467192414942e-13 7.100801238696687e-16 -1.3602673808795683e-13 6.56694444913094" Properties=species:S:1:pos:R:3 unique_starting_index=98 config_type=initial n_minim_iter=15 pbc="T T T"
Si       1.55586971       6.11378985       0.97155152
Si       3.19684794       1.19830899       5.59539293
Si       3.93222854       8.63265274       5.59539293
Si       0.82048911       3.71717187       0.97155152
Si       3.19684794       3.71717187       5.59539293
Si       1.55586971       8.63265274       0.97155152
Si       0.82048911       1.19830899       0.97155152
Si       3.93222854       6.11378985       5.59539293
Si       1.84461191       6.12651607       3.30653487
Si       2.90810574       1.21103521       3.26040957
Si       4.22097074       8.61992652       3.26040957
Si       0.53174691       3.70444566       3.30653487
Si       2.90810574       3.70444566       3.26040957
Si       1.84461191       8.61992652       3.30653487
Si       0.53174691       1.21103521       3.30653487
Si       4.22097074       6.12651607       3.26040957
16
Lattice="4.743889803088644 -1.278263146241213e-27 4.2172356252346397e-17 -1.831978506136023e-27 9.732457811605354 -2.629412078894188e-13 7.380301749944091e-16 -1.4662672269167044e-13 6.49216525208548" Properties=species:S:1:pos:R:3 unique_starting_index=98 config_type=initial n_minim_iter=16 pbc="T T T"
Si       1.55271380       6.05246819       0.95712535
Si       3.19117600       1.18623929       5.53503990
Si       3.92465870       8.54621852       5.53503990
Si       0.81923110       3.67998962       0.95712535
Si       3.19117600       3.67998962       5.53503990
Si       1.55271380       8.54621852       0.95712535
Si       0.81923110       1.18623929       0.95712535
Si       3.92465870       6.05246819       5.53503990
Si       1.84157420       6.06452971       3.27045222
Si       2.90231560       1.19830081       3.22171304
Si       4.21351911       8.53415700       3.22171304
Si       0.53037070       3.66792810       3.27045222
Si       2.90231560       3.66792810       3.22171304
Si       1.84157420       8.53415700       3.27045222
Si       0.53037070       1.19830081       3.27045222
Si       4.21351911       6.06452971       3.22171304
16
Lattice="4.749631616631392 1.0709197510074268e-27 8.33115355580414e-17 5.196022853937247e-28 9.754109092333792 -2.724465180709582e-13 7.798096944480209e-16 -1.571417508249823e-13 6.479914746081701" Properties=species:S:1:pos:R:3 unique_starting_index=98 config_type=initial n_minim_iter=17 pbc="T T T"
Si       1.55437609       6.06581653       0.95214130
Si       3.19525552       1.18876199       5.52777344
Si       3.92919190       8.56534711       5.52777344
Si       0.82043972       3.68829256       0.95214130
Si       3.19525552       3.68829256       5.52777344
Si       1.55437609       8.56534711       0.95214130
Si       0.82043972       1.18876199       0.95214130
Si       3.92919190       6.06581653       5.52777344
Si       1.84414951       6.07726341       3.26593819
Si       2.90548210       1.20020886       3.21397655
Si       4.21896532       8.55390023       3.21397655
Si       0.53066630       3.67684568       3.26593819
Si       2.90548210       3.67684568       3.21397655
Si       1.84414951       8.55390023       3.26593819
Si       0.53066630       1.20020886       3.26593819
Si       4.21896532       6.07726341       3.21397655
16
Lattice="4.74972466321392 4.0120548422118446e-28 1.2770235149684831e-16 -1.5409410857526437e-28 9.753354923953793 -2.8239501287677924e-13 8.24205327902248e-16 -1.6780511750203063e-13 6.465342570703157" Properties=species:S:1:pos:R:3 unique_starting_index=98 config_type=initial n_minim_iter=18 pbc="T T T"
Si       1.55421608       6.06526719       0.94732304
Si       3.19550858       1.18858973       5.51801953
Si       3.92907841       8.56476519       5.51801953
Si       0.82064625       3.68808773       0.94732304
Si       3.19550858       3.68808773       5.51801953
Si       1.55421608       8.56476519       0.94732304
Si       0.82064625       1.18858973       0.94732304
Si       3.92907841       6.06526719       5.51801953
Si       1.84447651       6.07621776       3.25997499
Si       2.90524815       1.19954030       3.20536758
Si       4.21933885       8.55381463       3.20536758
Si       0.53038582       3.67713717       3.25997499
Si       2.90524815       3.67713717       3.20536758
Si       1.84447651       8.55381463       3.25997499
Si       0.53038582       1.19954030       3.25997499
Si       4.21933885       6.07621776       3.20536758
16
Lattice="4.747772828693608 6.025718610047148e-28 1.6903290210338569e-16 4.561735770858755e-29 9.752505654695911 -2.9383587887197295e-13 8.649220248827442e-16 -1.826772338948374e-13 6.398242574933137" Properties=species:S:1:pos:R:3 unique_starting_index=98 config_type=initial n_minim_iter=19 pbc="T T T"
Si       1.55262030       6.06436738       0.92410675
Si       3.19515253       1.18811456       5.47413582
Si       3.92650671       8.56439110       5.47413582
Si       0.82126612       3.68813827       0.92410675
Si       3.19515253       3.68813827       5.47413582
Si       1.55262030       8.56439110       0.92410675
Si       0.82126612       1.18811456       0.92410675
Si       3.92650671       6.06436738       5.47413582
Si       1.84517115       6.07285489       3.23305851
Si       2.90260168       1.19660206       3.16518406
Si       4.21905756       8.55590359       3.16518406
Si       0.52871526       3.67965076       3.23305851
Si       2.90260168       3.67965076       3.16518406
Si       1.84517115       8.55590359       3.23305851
Si       0.52871526       1.19660206       3.23305851
Si       4.21905756       6.07285489       3.16518406
16
Lattice="4.7398545811767905 5.469847043658175e-28 2.197380052074829e-16 -1.340569770211835e-29 9.762486431091823 -3.071964621741073e-13 9.146388314080306e-16 -1.9890439232184594e-13 6.349795263402619" Properties=species:S:1:pos:R:3 unique_starting_index=98 config_type=initial n_minim_iter=20 pbc="T T T"
Si       1.54906767       6.07033765       0.90334085
Si       3.19078691       1.18909444       5.44645442
Si       3.91899496       8.57339200       5.44645442
Si       0.82085962       3.69214878       0.90334085
Si       3.19078691       3.69214878       5.44645442
Si       1.54906767       8.57339200       0.90334085
Si       0.82085962       1.18909444       0.90334085
Si       3.91899496       6.07033765       5.44645442
Si       1.84351947       6.07654738       3.21569158
Si       2.89633512       1.19530416       3.13410369
Si       4.21344676       8.56718227       3.13410369
Si       0.52640782       3.68593906       3.21569158
Si       2.89633512       3.68593906       3.13410369
Si       1.84351947       8.56718227       3.21569158
Si       0.52640782       1.19530416       3.21569158
Si       4.21344676       6.07654738       3.13410369
16
Lattice="4.737056310783784 5.659982933790325e-28 2.7008527531749426e-16 4.1716887168187834e-30 9.739857453342257 -3.2296177951739366e-13 9.652837450111218e-16 -2.1877444853486155e-13 6.267679236344264" Properties=species:S:1:pos:R:3 unique_starting_index=98 config_type=initial n_minim_iter=21 pbc="T T T"
Si       1.54722244       6.05620486       0.87815244
Si       3.18983387       1.18627613       5.38952680
Si       3.91575060       8.55358132       5.38952680
Si       0.82130571       3.68365260       0.87815244
Si       3.18983387       3.68365260       5.38952680
Si       1.54722244       8.55358132       0.87815244
Si       0.82130571       1.18627613       0.87815244
Si       3.91575060       6.05620486       5.38952680
Si       1.84377545       6.06041051       3.18089014
Si       2.89328086       1.19048179       3.08678910
Si       4.21230361       8.54937567       3.08678910
Si       0.52475270       3.67944694       3.18089014
Si       2.89328086       3.67944694       3.08678910
Si       1.84377545       8.54937567       3.18089014
Si       0.52475270       1.19048179       3.18089014
Si       4.21230361       6.06041051       3.08678910
16
Lattice="4.740995900329557 5.662065020851863e-28 3.4189585046897963e-16 -1.252970582205685e-30 9.767263534971546 -3.4071886071846393e-13 1.0379585442179774e-15 -2.3693543710543034e-13 6.274255305835223" Properties=species:S:1:pos:R:3 unique_starting_index=98 config_type=initial n_minim_iter=22 pbc="T T T"
Si       1.54826139       6.07322775       0.87520377
Si       3.19273451       1.18959598       5.39905153
Si       3.91875934       8.57766755       5.39905153
Si       0.82223656       3.69403579       0.87520377
Si       3.19273451       3.69403579       5.39905153
Si       1.54826139       8.57766755       0.87520377
Si       0.82223656       1.18959598       0.87520377
Si       3.91875934       6.07322775       5.39905153
Si       1.84567130       6.07692785       3.18622005
Si       2.89532460       1.19329608       3.08803525
Si       4.21616925       8.57396746       3.08803525
Si       0.52482665       3.69033569       3.18622005
Si       2.89532460       3.69033569       3.08803525
Si       1.84567130       8.57396746       3.18622005
Si       0.52482665       1.19329608       3.18622005
Si       4.21616925       6.07692785       3.08803525
16
Lattice="4.738138028909522 5.717829724931287e-28 4.1548640236668357e-16 4.361477131948718e-31 9.76129239798323 -3.6163273115469334e-13 1.1117016287045188e-15 -2.586272894833853e-13 6.2598823687021214" Properties=species:S:1:pos:R:3 unique_starting_index=98 config_type=initial n_minim_iter=23 pbc="T T T"
Si       1.54712654       6.06952195       0.87014698
Si       3.19101149       1.18887575       5.38973539
Si       3.91619556       8.57241665       5.38973539
Si       0.82194247       3.69177045       0.87014698
Si       3.19101149       3.69177045       5.38973539
Si       1.54712654       8.57241665       0.87014698
Si       0.82194247       1.18887575       0.87014698
Si       3.91619556       6.06952195       5.38973539
Si       1.84484348       6.07284207       3.18042770
Si       2.89329455       1.19219587       3.07945467
Si       4.21391249       8.56909653       3.07945467
Si       0.52422554       3.68845033       3.18042770
Si       2.89329455       3.68845033       3.07945467
Si       1.84484348       8.56909653       3.18042770
Si       0.52422554       1.19219587       3.18042770
Si       4.21391249       6.07284207       3.07945467
16
Lattice="4.737092283365075 5.7590530760179395e-28 4.945217101928219e-16 -2.318679636219763e-31 9.76308076363517 -3.8326975256730175e-13 1.1914181952920914e-15 -2.8145094606810684e-13 6.244014537835477" Properties=species:S:1:pos:R:3 unique_starting_index=98 config_type=initial n_minim_iter=24 pbc="T T T"
Si       1.54649922       6.07064626       0.86352009
Si       3.19059307       1.18910587       5.38049444
Si       3.91504536       8.57397489       5.38049444
Si       0.82204692       3.69243451       0.86352009
Si       3.19059307       3.69243451       5.38049444
Si       1.54649922       8.57397489       0.86352009
Si       0.82204692       1.18910587       0.86352009
Si       3.91504536       6.07064626       5.38049444
Si       1.84484346       6.07342554       3.17455217
Si       2.89224882       1.19188516       3.06946236
Si       4.21338960       8.57119560       3.06946236
Si       0.52370268       3.68965522       3.17455217
Si       2.89224882       3.68965522       3.06946236
Si       1.84484346       8.57119560       3.17455217
Si       0.52370268       1.19188516       3.17455217
Si       4.21338960       6.07342554       3.06946236
16
Lattice="4.697860862862193 5.710235907768079e-28 3.653327932494252e-16 1.3428633553130449e-31 9.854216049023693 -4.047382874348808e-13 1.0943484155048586e-15 -3.7244607781708626e-13 5.342341909163196" Properties=species:S:1:pos:R:3 unique_starting_index=98 config_type=initial n_minim_iter=25 pbc="T T T"
Si       1.51677562       6.12854409       0.50979216
Si       3.18108524       1.20143607       4.83254975
Si       3.86570605       8.65277998       4.83254975
Si       0.83215481       3.72567195       0.50979216
Si       3.18108524       3.72567195       4.83254975
Si       1.51677562       8.65277998       0.50979216
Si       0.83215481       1.20143607       0.50979216
Si       3.86570605       6.12854409       4.83254975
Si       1.85356888       6.09976610       2.82854059
Si       2.84429199       1.17265808       2.51380132
Si       4.20249931       8.68155797       2.51380132
Si       0.49536156       3.75444995       2.82854059
Si       2.84429199       3.75444995       2.51380132
Si       1.85356888       8.68155797       2.82854059
Si       0.49536156       1.17265808       2.82854059
Si       4.20249931       6.09976610       2.51380132
16
Lattice="5.47017248859293 6.072387750652713e-28 5.215600282611883e-16 -5.539048596560205e-32 10.308181915866957 -4.59656843023279e-13 1.3685890487306486e-15 -3.6732444013705945e-13 6.259939450117258" Properties=species:S:1:pos:R:3 unique_starting_index=98 config_type=initial n_minim_iter=26 pbc="T T T"
Si       1.76570481       6.41581349       0.58618346
Si       3.70446768       1.26172253       5.67375599
Si       4.50079105       9.04645938       5.67375599
Si       0.96938144       3.89236843       0.58618346
Si       3.70446768       3.89236843       5.67375599
Si       1.76570481       9.04645938       0.58618346
Si       0.96938144       1.26172253       0.58618346
Si       4.50079105       6.41581349       5.67375599
Si       2.15793907       6.38697636       3.32224087
Si       3.31223342       1.23288540       2.93769858
Si       4.89302531       9.07529652       2.93769858
Si       0.57714717       3.92120556       3.32224087
Si       3.31223342       3.92120556       2.93769858
Si       2.15793907       9.07529652       3.32224087
Si       0.57714717       1.23288540       3.32224087
Si       4.89302531       6.38697636       2.93769858
16
Lattice="4.958993754237162 5.477491349185156e-28 4.975930209273094e-16 2.4723204728822644e-32 9.388885000756089 -5.387924070568052e-13 1.2680718470362492e-15 -4.61173340842718e-13 5.635271703390774" Properties=species:S:1:pos:R:3 unique_starting_index=98 config_type=initial n_minim_iter=27 pbc="T T T"
Si       1.60046594       5.84384940       0.52822305
Si       3.35852781       1.14940690       5.10704865
Si       4.07996282       8.23947810       5.10704865
Si       0.87903094       3.54503560       0.52822305
Si       3.35852781       3.54503560       5.10704865
Si       1.60046594       8.23947810       0.52822305
Si       0.87903094       1.14940690       0.52822305
Si       4.07996282       5.84384940       5.10704865
Si       1.95642828       5.81744042       2.98929765
Si       3.00256547       1.12299792       2.64597406
Si       4.43592516       8.26588708       2.64597406
Si       0.52306859       3.57144458       2.98929765
Si       3.00256547       3.57144458       2.64597406
Si       1.95642828       8.26588708       2.98929765
Si       0.52306859       1.12299792       2.98929765
Si       4.43592516       5.81744042       2.64597406
16
Lattice="4.918477419647845 5.710557859627648e-28 5.470404440279343e-16 3.2027713411278146e-32 9.763415981519117 -5.833330773215904e-13 1.3146070057617563e-15 -5.359575583557806e-13 5.546371759388127" Properties=species:S:1:pos:R:3 unique_starting_index=98 config_type=initial n_minim_iter=28 pbc="T T T"
Si       1.58755596       6.07651151       0.51906340
Si       3.33092146       1.19480352       5.02730836
Si       4.04679467       8.56861246       5.02730836
Si       0.87168275       3.68690447       0.51906340
Si       3.33092146       3.68690447       5.02730836
Si       1.58755596       8.56861246       0.51906340
Si       0.87168275       1.19480352       0.51906340
Si       4.04679467       6.07651151       5.02730836
Si       1.94030240       6.04926941       2.94250260
Si       2.97817502       1.16756142       2.60386916
Si       4.39954111       8.59585456       2.60386916
Si       0.51893631       3.71414657       2.94250260
Si       2.97817502       3.71414657       2.60386916
Si       1.94030240       8.59585456       2.94250260
Si       0.51893631       1.16756142       2.94250260
Si       4.39954111       6.04926941       2.60386916
16
Lattice="4.861566490011099 5.7141701560119565e-28 6.125764685982318e-16 -9.208436615602749e-33 9.762248471999465 -6.731133317193773e-13 1.3706990228989423e-15 -6.324499712957821e-13 5.492458146770454" Properties=species:S:1:pos:R:3 unique_starting_index=98 config_type=initial n_minim_iter=29 pbc="T T T"
Si       1.56916732       6.07601261       0.51295780
Si       3.29239917       1.19488838       4.97950034
Si       3.99995056       8.56736009       4.97950034
Si       0.86161593       3.68623586       0.51295780
Si       3.29239917       3.68623586       4.97950034
Si       1.56916732       8.56736009       0.51295780
Si       0.86161593       1.19488838       0.51295780
Si       3.99995056       6.07601261       4.97950034
Si       1.91775801       6.04905425       2.91429587
Si       2.94380848       1.16793001       2.57816227
Si       4.34854125       8.59431846       2.57816227
Si       0.51302524       3.71319422       2.91429587
Si       2.94380848       3.71319422       2.57816227
Si       1.91775801       8.59431846       2.91429587
Si       0.51302524       1.16793001       2.91429587
Si       4.34854125       6.04905425       2.57816227
16
Lattice="4.8506563736233925 5.748411368983977e-28 6.898764086498134e-16 -6.58918049456934e-32 9.808635917557826 -7.783168842718015e-13 1.4459787213273598e-15 -7.421772751898527e-13 5.486874348462645" Properties=species:S:1:pos:R:3 unique_starting_index=98 config_type=initial n_minim_iter=30 pbc="T T T"
Si       1.56562238       6.10519973       0.51120254
Si       3.28503399       1.20088177       4.97567180
Si       3.99095057       8.60775415       4.97567180
Si       0.85970581       3.70343619       0.51120254
Si       3.28503399       3.70343619       4.97567180
Si       1.56562238       8.60775415       0.51120254
Si       0.85970581       1.20088177       0.51120254
Si       3.99095057       6.10519973       4.97567180
Si       1.91335954       6.07842284       2.91193553
Si       2.93729683       1.17410488       2.57493882
Si       4.33868773       8.63453104       2.57493882
Si       0.51196864       3.73021308       2.91193553
Si       2.93729683       3.73021308       2.57493882
Si       1.91335954       8.63453104       2.91193553
Si       0.51196864       1.17410488       2.91193553
Si       4.33868773       6.07842284       2.57493882
