12
Lattice="5.97287320326727 -0.4449085508943318 1.2688478041572129 -2.5873544636590355 5.023551039684573 0.2226759724810985 2.5043399103926265 0.7831880752723924 8.177942514301293" Properties=species:S:1:pos:R:3 unique_starting_index=44 config_type=initial n_minim_iter=1 energy=-1953.4569833462847 free_energy=-1953.4569833462847 pbc="T T T"
Si       1.90113687       2.59594024       6.96097466
Si      -0.96510851       3.24428557       3.83567000
Si       1.65273616       4.39805837       5.29493271
Si       2.86126975       2.42044371       4.17699092
Si       5.20770720       4.74877866       8.56120780
Si       5.59250703       0.89292774       6.37058941
Si       3.91397482       2.74772924       2.01446092
Si       0.05161848       3.68207406       1.77900805
Si       3.56711951       2.82405753       8.65607482
Si       5.88605712      -0.05240351       3.29524310
Si       1.79598792       0.31473641       4.68463215
Si       5.55925203       1.49391354       8.76317222
12
Lattice="5.975969989879622 -0.4444909914067774 1.2802781705060657 -2.5874851224139577 5.028639615370125 0.2224196562289865 2.517051831068993 0.7890594957551292 8.200202762971921" Properties=species:S:1:pos:R:3 unique_starting_index=44 config_type=initial n_minim_iter=2 stress="0.001509264089961403 9.508288046627959e-05 0.0005192673536379032 9.508288046627959e-05 0.0017473953214099873 4.391068215305268e-05 0.0005192673536379032 4.391068215305268e-05 0.001691143507193466" pbc="T T T"
Si       1.91133638       2.60261400       6.98245589
Si      -0.95960182       3.24986968       3.84358806
Si       1.66165760       4.40477536       5.31140970
Si       2.86787118       2.42533740       4.19171042
Si       5.22191962       4.75934193       8.59136282
Si       5.60381242       0.89920555       6.39301104
Si       3.91702908       2.75134967       2.02569963
Si       0.05411918       3.68528922       1.78677291
Si       3.58039695       2.83168250       8.68236687
Si       5.89149275      -0.04961582       3.31114549
Si       1.80318713       0.31772111       4.69926402
Si       5.57492073       1.50236822       8.78958329
12
Lattice="5.96327292138777 -0.4435513127817785 1.2886153402058285 -2.5816557099836737 5.021025494257746 0.2233834431007608 2.5221584541237747 0.7946593885065336 8.207381947423713" Properties=species:S:1:pos:R:3 unique_starting_index=44 config_type=initial n_minim_iter=3 stress="-0.0011972954723329108 0.00014409134647595128 0.001488501366189491 0.00014409134647595128 -0.00040747733040502637 0.00045994537130078354 0.001488501366189491 0.00045994537130078354 -0.000252372291219927" pbc="T T T"
Si       1.91485748       2.60384181       6.99367419
Si      -0.95277146       3.24827836       3.84433661
Si       1.66576200       4.40009492       5.31898171
Si       2.86597670       2.42433830       4.19885214
Si       5.22110496       4.75940137       8.60710297
Si       5.60017874       0.90540132       6.40270415
Si       3.90836100       2.74734073       2.03278963
Si       0.05543503       3.67783138       1.79341556
Si       3.58229232       2.83303418       8.69313134
Si       5.88039443      -0.04595032       3.32016266
Si       1.80495860       0.32031046       4.70689771
Si       5.57618821       1.50964736       8.79734705
12
Lattice="5.963876311980302 -0.44743195016540366 1.2732629204773833 -2.5872283942026546 5.018762831851544 0.2295338088616805 2.499900777623432 0.7899455904344392 8.210349750716247" Properties=species:S:1:pos:R:3 unique_starting_index=44 config_type=initial n_minim_iter=4 stress="-0.0012654203155904322 -9.275072929431284e-05 -0.00033915745317501805 -9.275072929431284e-05 0.0005892676847134835 7.905583318076659e-05 -0.00033915745317501805 7.905583318076659e-05 0.00036615258073639047" pbc="T T T"
Si       1.89345286       2.59839362       7.00256228
Si      -0.96749594       3.24591273       3.84821555
Si       1.65140234       4.39103188       5.31927517
Si       2.85386872       2.41860468       4.19431772
Si       5.19826236       4.75132582       8.60353415
Si       5.58676069       0.90356207       6.39236079
Si       3.90126035       2.74111465       2.02102157
Si       0.04772040       3.67062895       1.79720584
Si       3.55610226       2.82398415       8.69284008
Si       5.87268324      -0.04805848       3.30695206
Si       1.79219066       0.31547182       4.71286779
Si       5.55786520       1.50561546       8.78498027
12
Lattice="5.989661219736841 -0.4470162813303039 1.2711059911932756 -2.5990372417536936 5.0039142379353745 0.22860353480107387 2.5086227011409004 0.7849677291313975 8.204794191151374" Properties=species:S:1:pos:R:3 unique_starting_index=44 config_type=initial n_minim_iter=5 stress="0.0012175047544981789 -2.6009007084657833e-05 0.00011362151393413309 -2.6009007084657833e-05 -0.0010163672246054985 1.669605709941761e-05 0.00011362151393413309 1.669605709941761e-05 -0.00021359083648303856" pbc="T T T"
Si       1.89893058       2.58924659       7.00258323
Si      -0.97405092       3.23638719       3.84340041
Si       1.65961297       4.37304976       5.31439567
Si       2.86427931       2.40919528       4.18877111
Si       5.21931730       4.73539675       8.59729826
Si       5.61122606       0.90225107       6.38461663
Si       3.91569437       2.73077728       2.01701821
Si       0.04750758       3.65724226       1.79599043
Si       3.56775421       2.81122149       8.68670349
Si       5.89510419      -0.04692922       3.30306049
Si       1.79866614       0.31070664       4.71486424
Si       5.58216582       1.49909677       8.77233597
12
Lattice="5.973064641892589 -0.4475189765549714 1.2688058330620156 -2.5906195643993306 5.021092686359973 0.22645106529299008 2.4982866662895464 0.7830113013915597 8.204871155475004" Properties=species:S:1:pos:R:3 unique_starting_index=44 config_type=initial n_minim_iter=6 stress="-0.0009733528762563637 0.00018425484785505696 -0.0007538174804238081 0.00018425484785505696 0.0026758652395713193 -0.0006471339683751285 -0.0007538174804238081 -0.0006471339683751285 -0.0009750334921292584" pbc="T T T"
Si       1.89034971       2.60056609       7.01273938
Si      -0.97739228       3.24904554       3.83841282
Si       1.66120660       4.37775889       5.31215434
Si       2.85533237       2.41440298       4.18091655
Si       5.20450351       4.74949759       8.59588057
Si       5.59979571       0.90868191       6.37521430
Si       3.90397125       2.73711099       2.01514011
Si       0.04765801       3.67031607       1.78991322
Si       3.55513019       2.81354785       8.68819320
Si       5.87079214      -0.04141890       3.29988424
Si       1.79178758       0.30466170       4.72821050
Si       5.56348253       1.49760480       8.76070086
12
Lattice="5.968709150158882 -0.44818036602313327 1.2721246146757679 -2.591414647046727 5.009153056624449 0.2328526010801398 2.4937875427334495 0.7873029665303686 8.239940195300381" Properties=species:S:1:pos:R:3 unique_starting_index=44 config_type=initial n_minim_iter=7 stress="-0.0014510885206201858 5.029731095268328e-05 -0.0010618312184495742 5.029731095268328e-05 0.0012671321417589598 4.084551455270265e-05 -0.0010618312184495742 4.084551455270265e-05 0.0011734139705023051" pbc="T T T"
Si       1.88439355       2.60558760       7.05544197
Si      -0.98449588       3.24868518       3.85465728
Si       1.66340881       4.36201474       5.33940494
Si       2.85015960       2.40784355       4.19444089
Si       5.19724326       4.74328753       8.63903341
Si       5.59966095       0.91452772       6.39325897
Si       3.89849125       2.72632220       2.02671790
Si       0.04524374       3.66482505       1.79587164
Si       3.54983590       2.80919568       8.73098710
Si       5.85838914      -0.03518034       3.31094332
Si       1.79014397       0.30301894       4.76067188
Si       5.55469479       1.49457904       8.78883129
12
Lattice="5.987674903217961 -0.4527923940546095 1.2799239772644726 -2.60300373778112 4.9991660629089045 0.22833962262624982 2.5096675701150173 0.7804593073132828 8.247642579547275" Properties=species:S:1:pos:R:3 unique_starting_index=44 config_type=initial n_minim_iter=8 stress="-9.5868147487595e-05 -0.00035572237201008056 6.466382103710693e-05 -0.00035572237201008056 -1.8941071167968142e-05 0.00015890477375875387 6.466382103710693e-05 0.00015890477375875387 0.0004739853317766817" pbc="T T T"
Si       1.89304633       2.60517424       7.07759344
Si      -0.99239890       3.24783064       3.84838139
Si       1.68094775       4.33584745       5.34521904
Si       2.85943602       2.39336791       4.19045525
Si       5.21991537       4.72618755       8.65485259
Si       5.63120405       0.91253065       6.39032148
Si       3.90856495       2.71061983       2.03365145
Si       0.04336046       3.65916483       1.78960909
Si       3.56967147       2.79197245       8.74617148
Si       5.86749876      -0.03232272       3.31748498
Si       1.80379922       0.29258735       4.78386279
Si       5.57633995       1.47641659       8.78544871
12
Lattice="6.008427033762091 -0.43815585030498133 1.2830039823628587 -2.599940235100492 4.977064580015542 0.22234134476872752 2.5234368291785008 0.7757187102425873 8.251008222958113" Properties=species:S:1:pos:R:3 unique_starting_index=44 config_type=initial n_minim_iter=9 stress="0.000969104225637045 0.0011446593633512674 0.0007527793679449358 0.0011446593633512674 -0.0017443243601296978 0.00021224735750931554 0.0007527793679449358 0.00021224735750931554 -0.0004010073994624214" pbc="T T T"
Si       1.90278203       2.60828736       7.10182235
Si      -0.99339639       3.24311760       3.83506987
Si       1.71171636       4.30406434       5.34833901
Si       2.87404184       2.37834826       4.17930536
Si       5.25622452       4.71852359       8.66913542
Si       5.66843956       0.92473224       6.37323937
Si       3.93035585       2.70386812       2.03363173
Si       0.04864547       3.65170492       1.78133268
Si       3.59863266       2.77791226       8.75913538
Si       5.87261398      -0.00954116       3.31696040
Si       1.82290679       0.28407135       4.80686045
Si       5.59524575       1.46745971       8.76700770
12
Lattice="6.020597719862587 -0.46593261273383624 1.2831456247582753 -2.6262785380116243 4.987441271012855 0.21519761944062452 2.5243106667531197 0.7532137976541748 8.246792981491078" Properties=species:S:1:pos:R:3 unique_starting_index=44 config_type=initial n_minim_iter=10 stress="0.0009523918020909101 -0.0015052034940428987 0.0009297762127919386 -0.0015052034940428987 -0.0009767460885214214 -0.00013497974280198772 0.0009297762127919386 -0.00013497974280198772 -0.0008741358034665604" pbc="T T T"
Si       1.88500249       2.60083286       7.11714024
Si      -1.01185937       3.25259831       3.81685587
Si       1.70243640       4.27559412       5.34699821
Si       2.86606966       2.34633046       4.16694379
Si       5.24568691       4.68765951       8.67711080
Si       5.68423491       0.89376492       6.34844794
Si       3.92916130       2.67989044       2.02680939
Si       0.02378703       3.65387476       1.77649031
Si       3.60103300       2.74750425       8.76373494
Si       5.86676493      -0.03070261       3.31122276
Si       1.84292782       0.26651478       4.81516579
Si       5.58856040       1.42328660       8.73920673
12
Lattice="6.013729408305648 -0.45305320442807057 1.2771122339922527 -2.6134446841685186 4.986442200121108 0.21837227402363674 2.5153859606088527 0.7600314467275502 8.246702393753116" Properties=species:S:1:pos:R:3 unique_starting_index=44 config_type=initial n_minim_iter=11 stress="7.11639262825046e-05 -0.00023590466646568345 -2.042766005981846e-05 -0.00023590466646568345 -2.2579529794065096e-05 -0.00012848937180231403 -2.042766005981846e-05 -0.00012848937180231403 -4.77002276861825e-05" pbc="T T T"
Si       1.87768344       2.60907576       7.12354924
Si      -1.00672171       3.25464121       3.81753150
Si       1.70368833       4.28163289       5.34916146
Si       2.86542271       2.35133470       4.16553825
Si       5.24239604       4.70663827       8.68069769
Si       5.67769662       0.90621276       6.33809675
Si       3.93242198       2.69106657       2.02096495
Si       0.02680477       3.65802224       1.77942834
Si       3.59748918       2.76048519       8.76606498
Si       5.85509464      -0.01714807       3.30468273
Si       1.84496333       0.27205259       4.81357228
Si       5.57467731       1.43679212       8.72912773
12
Lattice="6.009720938981763 -0.4322353787523486 1.269063823271126 -2.5958525829202124 4.9870233661865635 0.22494652880836238 2.5064836209954913 0.7749996032713847 8.246921702535227" Properties=species:S:1:pos:R:3 unique_starting_index=44 config_type=initial n_minim_iter=12 stress="-0.0016365032829122562 0.001823518769370842 -0.0015721554614297813 0.001823518769370842 0.0018808126708910367 -0.00027690085402520544 -0.0015721554614297813 -0.00027690085402520544 0.001356437407514279" pbc="T T T"
Si       1.85925348       2.63371969       7.16048779
Si      -1.00160676       3.26283842       3.81895350
Si       1.71191678       4.28431451       5.35816369
Si       2.87451229       2.35724826       4.16040498
Si       5.24228020       4.75148402       8.70000180
Si       5.68697894       0.92901494       6.30168568
Si       3.94761336       2.70621650       2.01149231
Si       0.02879217       3.67131459       1.78211245
Si       3.59952975       2.79158952       8.78150154
Si       5.82918219       0.01046346       3.29215814
Si       1.86958258       0.27940587       4.82269622
Si       5.55259570       1.45555465       8.68977285
12
Lattice="6.044558299667369 -0.44320283225867 1.2766250918309212 -2.621788793358783 4.991510248026249 0.23547694709020275 2.534541484819711 0.794998874147786 8.23257988569973" Properties=species:S:1:pos:R:3 unique_starting_index=44 config_type=initial n_minim_iter=13 stress="-0.0002221471200198699 0.00027323973527224515 -0.00030189097528944363 0.00027323973527224515 0.000916799982121442 0.0003511174304120394 -0.00030189097528944363 0.0003511174304120394 -0.0003547231830283574" pbc="T T T"
Si       1.85359024       2.66271199       7.20233101
Si      -1.01056020       3.27484752       3.82524889
Si       1.72254195       4.27684094       5.36695898
Si       2.91005433       2.36005678       4.15846605
Si       5.26501871       4.78244445       8.71835234
Si       5.74881031       0.92515409       6.25980406
Si       3.97640180       2.69342787       2.01759767
Si       0.01916050       3.68571679       1.78340421
Si       3.62776584       2.82422947       8.79164769
Si       5.83999349       0.01012013       3.28918451
Si       1.92387798       0.28181235       4.83164786
Si       5.57516611       1.45521280       8.63412441
12
Lattice="6.0635806775101955 -0.44855850871927216 1.284459778043081 -2.6344549353283075 4.984854395852973 0.23414854703884527 2.5508539304048763 0.793556158960195 8.240020940548296" Properties=species:S:1:pos:R:3 unique_starting_index=44 config_type=initial n_minim_iter=14 stress="0.00030963045507524504 -9.683744871805187e-05 0.0005587934861430904 -9.683744871805187e-05 0.00014706407123200348 -0.0007406387910415762 0.0005587934861430904 -0.0007406387910415762 -0.00024438869454997987" pbc="T T T"
Si       1.84810524       2.66812010       7.24402699
Si      -1.01414649       3.27329354       3.83084136
Si       1.73312144       4.25421169       5.37713875
Si       2.93328963       2.35341899       4.16102775
Si       5.27930611       4.78220326       8.74174121
Si       5.78791006       0.91155507       6.24265457
Si       3.99321002       2.67971584       2.02021219
Si       0.01418627       3.68711978       1.78346564
Si       3.64558021       2.82523252       8.81226027
Si       5.84154602       0.00857663       3.29356812
Si       1.95746301       0.27268605       4.85046067
Si       5.58408392       1.44153145       8.60931951
12
Lattice="6.084048602662665 -0.45306691895524015 1.2851724779431575 -2.651955165479717 4.981908254342844 0.2560334309402564 2.5620565968347737 0.8257357923384235 8.240778332764304" Properties=species:S:1:pos:R:3 unique_starting_index=44 config_type=initial n_minim_iter=15 stress="0.0010376642385976785 -0.0009660935828357453 0.0009027058358492219 -0.0009660935828357453 -0.0007042970947108213 0.0005863066136748025 0.0009027058358492219 0.0005863066136748025 -0.0010146990021524702" pbc="T T T"
Si       1.83531657       2.70102838       7.28371793
Si      -1.01765739       3.28589510       3.85522569
Si       1.73417141       4.25802601       5.39780903
Si       2.95961793       2.37168808       4.17304059
Si       5.28358339       4.81488312       8.76734041
Si       5.82243275       0.90986215       6.22444405
Si       4.00686096       2.67593415       2.02959159
Si       0.00748851       3.69891133       1.80223908
Si       3.65391158       2.86367080       8.82808506
Si       5.84776499       0.01102585       3.29215134
Si       1.98573367       0.28240280       4.85769588
Si       5.58386783       1.46439719       8.57969852
12
Lattice="6.09429633589972 -0.4556823507133701 1.2885695491848246 -2.660781935411894 4.968914492946087 0.2623725008433805 2.5672398834245307 0.8314953453001784 8.258904893265226" Properties=species:S:1:pos:R:3 unique_starting_index=44 config_type=initial n_minim_iter=16 stress="0.00089381083459713 -0.0011408726969684684 0.0010699435876700043 -0.0011408726969684684 -0.0013068482597729336 -0.0004166568650145937 0.0010699435876700043 -0.0004166568650145937 -0.00022119309277551246" pbc="T T T"
Si       1.82066334       2.70721206       7.32596531
Si      -1.01389264       3.28326745       3.87695201
Si       1.73666550       4.24012856       5.41663973
Si       2.98141109       2.37838078       4.18802041
Si       5.28356160       4.81157488       8.79444320
Si       5.84501217       0.88755397       6.22293799
Si       4.01278817       2.66892751       2.03478238
Si       0.00404480       3.69932221       1.81815281
Si       3.65650004       2.86753720       8.85083554
Si       5.84766284       0.00727331       3.29786337
Si       2.00321459       0.27675540       4.87421142
Si       5.57198437       1.46630583       8.56698999
12
Lattice="6.100875287359611 -0.4483862312116712 1.2822623545401723 -2.662348529326923 4.957744245302185 0.2801943519987868 2.56153948266648 0.8545287604324346 8.27065242004032" Properties=species:S:1:pos:R:3 unique_starting_index=44 config_type=initial n_minim_iter=17 stress="0.0010126980485118736 -0.00036425866482017526 0.0005969291003065199 -0.00036425866482017526 -0.00047625699361407707 0.0003729944779735091 0.0005969291003065199 0.0003729944779735091 -0.00033160009342953503" pbc="T T T"
Si       1.79941238       2.73250744       7.36296176
Si      -1.00793714       3.29255907       3.89707875
Si       1.74111042       4.23406590       5.43860409
Si       2.99654420       2.39506743       4.19931913
Si       5.28084958       4.82910184       8.81936209
Si       5.85868830       0.88493470       6.21310076
Si       4.01635110       2.67605341       2.04049818
Si       0.00225158       3.70768745       1.84149732
Si       3.65184442       2.88822566       8.86757500
Si       5.84213247       0.01964005       3.29353659
Si       2.01114139       0.28359609       4.88865173
Si       5.54671690       1.49094768       8.54465185
12
Lattice="6.0845536369570645 -0.44597519568101324 1.277931238591785 -2.6538084958516834 4.951515239830669 0.2798771703151178 2.546135709079999 0.8488386782005695 8.282526922810204" Properties=species:S:1:pos:R:3 unique_starting_index=44 config_type=initial n_minim_iter=18 stress="-0.0006067450640396233 -0.00016411344312131776 -0.000395315762436589 -0.00016411344312131776 -0.0007420251710724402 1.8142030471630183e-05 -0.000395315762436589 1.8142030471630183e-05 0.00024474249142794006" pbc="T T T"
Si       1.78496552       2.72188989       7.35883416
Si      -0.99480719       3.28550150       3.90581732
Si       1.73222981       4.22823925       5.44297923
Si       2.98995882       2.39948550       4.20927578
Si       5.26195579       4.81118332       8.81826906
Si       5.83348494       0.86802036       6.22824368
Si       4.00193470       2.68438318       2.04275815
Si       0.00524942       3.70643049       1.85038237
Si       3.63021866       2.87844220       8.86789393
Si       5.83348524       0.01576786       3.29426564
Si       1.99286675       0.28443807       4.88856488
Si       5.51538267       1.49229436       8.55510754
12
Lattice="6.0860261612846225 -0.4410972451525466 1.2741211396911232 -2.6516409948036013 4.94504646167443 0.28304701458040876 2.5397522184748014 0.8502554202197442 8.294433303475502" Properties=species:S:1:pos:R:3 unique_starting_index=44 config_type=initial n_minim_iter=19 stress="-0.0004968378359245687 0.0007946430985961955 -0.0005697105047619323 0.0007946430985961955 0.0007608457835487116 -0.0002486864135461049 -0.0005697105047619323 -0.0002486864135461049 0.0004172817249629461" pbc="T T T"
Si       1.76224930       2.73137248       7.39345255
Si      -0.98818613       3.28850066       3.90796825
Si       1.73952168       4.20710154       5.45627470
Si       2.99648177       2.39551461       4.21149496
Si       5.26024573       4.81154437       8.83990115
Si       5.84346614       0.86250429       6.21287728
Si       4.00594746       2.68856444       2.04543069
Si       0.00343185       3.71286257       1.85700268
Si       3.62477775       2.87917038       8.88579563
Si       5.81924923       0.02736905       3.28970058
Si       2.00506950       0.28456445       4.90980825
Si       5.49051878       1.49001665       8.52972108
12
Lattice="6.07395202059438 -0.43817214082781125 1.2680836018740664 -2.6454196886386643 4.939172350182051 0.28684381569973033 2.520779697829857 0.8476334130787915 8.32188531455435" Properties=species:S:1:pos:R:3 unique_starting_index=44 config_type=initial n_minim_iter=20 stress="-0.00028226924565568224 0.0012902215687807988 -0.0011189524807069633 0.0012902215687807988 0.002601433568035321 0.0003581778031976379 -0.0011189524807069633 0.0003581778031976379 0.00048494506872493" pbc="T T T"
Si       1.70437311       2.73438526       7.44071476
Si      -0.95551048       3.28568938       3.91532543
Si       1.74280270       4.16438672       5.48036834
Si       3.00145233       2.38659275       4.22950350
Si       5.24207942       4.79581627       8.87329919
Si       5.83600477       0.84057570       6.20198054
Si       4.00057766       2.70941294       2.06900701
Si       0.00816126       3.73138108       1.86437009
Si       3.58616687       2.88070410       8.91446861
Si       5.79170916       0.04216046       3.28391467
Si       2.01450728       0.29813369       4.94796627
Si       5.42537076       1.47733498       8.49303928
12
Lattice="6.049281632273606 -0.44085534936548765 1.2795904840948655 -2.6331855558344697 4.9350614520332865 0.2695148758805225 2.5169354385561333 0.8214505243346052 8.354616118273078" Properties=species:S:1:pos:R:3 unique_starting_index=44 config_type=initial n_minim_iter=21 stress="-0.0005161308349383792 0.00032226248309639576 -0.0004883313944946868 0.00032226248309639576 0.0009626948348040835 -6.870827911990123e-05 -0.0004883313944946868 -6.870827911990123e-05 0.0005665982353849204" pbc="T T T"
Si       1.64082811       2.69812594       7.46784561
Si      -0.88423957       3.25790957       3.92359564
Si       1.74800744       4.10323056       5.49294854
Si       3.02120881       2.36927554       4.26959033
Si       5.22977344       4.74846591       8.89526116
Si       5.81744210       0.79112501       6.21528316
Si       3.99281588       2.74248799       2.11897536
Si       0.03384746       3.75566213       1.85200031
Si       3.53624863       2.86984787       8.93330785
Si       5.77180520       0.04362333       3.29357341
Si       2.02946061       0.31437426       4.98088903
Si       5.36031102       1.43612975       8.46855888
