24
Lattice="10.450630138318608 -2.7917232485517474e-15 -1.0912886570002693e-29 -5.2253150691593016 9.050511185339198 -1.499725677933646e-29 5.4420106751217e-30 1.1777713880430714e-29 5.211493806854841" Properties=species:S:1:pos:R:3 unique_starting_index=210 config_type=initial n_minim_iter=1 energy=-3901.6610110486586 free_energy=-3901.6610110486586 pbc="T T T"
Si       5.08363541       6.26669010       4.13878330
Si       2.48169961       1.26921236       4.13878330
Si       8.11061019       1.51460873       4.13878330
Si       2.88529512       7.53590246       4.13878330
Si      -0.14167966       2.78382109       4.13878330
Si      -2.74361546       7.78129883       4.13878330
Si       1.37471108       5.66326009       4.16610744
Si      -0.36656757       7.40941586       4.16610744
Si      -1.00814350       5.02834643       4.16610744
Si       4.21717157       4.02216476       4.16610744
Si       6.60002614       3.38725110       4.16610744
Si       4.85874750       1.64109533       4.16610744
Si       6.78704295       1.21586530       1.24466696
Si       6.00413843       5.26981896       1.24466696
Si       2.88476383       2.56482693       1.24466696
Si      -2.34055124       6.48568426       1.24466696
Si       1.56172788       7.83464589       1.24466696
Si       0.77882336       3.78069223       1.24466696
Si      -0.68345690       7.91014958       1.97397702
Si      -1.28334697       4.50354536       1.97397702
Si       1.96680386       5.68732743       1.97397702
Si       7.19211893       3.36318376       1.97397702
Si       4.54185817       1.14036161       1.97397702
Si       3.94196810       4.54696583       1.97397702
24
Lattice="10.240251887539516 -2.6125004895432784e-15 -1.0600629251202677e-29 -5.1201259437697555 8.86831827576077 -1.4510204793113467e-29 5.38188403781777e-30 1.1680941594223447e-29 5.109705303415897" Properties=species:S:1:pos:R:3 unique_starting_index=210 config_type=initial n_minim_iter=2 stress="-0.026309839693179314 9.88126433811957e-17 -4.366418260791336e-17 9.88126433811957e-17 -0.02630983969317925 1.0120520133231424e-16 -4.366418260791336e-17 1.0120520133231424e-16 -2.1650380229916757e-05" pbc="T T T"
Si       4.99855094       6.15130959       4.08629311
Si       2.41378605       1.25321730       4.08629311
Si       7.94804085       1.46379139       4.08629311
Si       2.82791490       7.40452689       4.08629311
Si      -0.12157501       2.71700869       4.08629311
Si      -2.70633989       7.61510098       4.08629311
Si       1.36080420       5.52220057       4.17651926
Si      -0.34264213       7.28570901       4.17651926
Si      -1.01816207       4.92872699       4.17651926
Si       4.10196387       3.93959129       4.17651926
Si       6.48093015       3.34611772       4.17651926
Si       4.77748381       1.58260928       4.17651926
Si       6.68088081       1.18503767       1.15795406
Si       5.87353876       5.19329367       1.15795406
Si       2.80595826       2.48998694       1.15795406
Si      -2.31416768       6.37833134       1.15795406
Si       1.56075487       7.68328061       1.15795406
Si       0.75341281       3.67502461       1.15795406
Si      -0.67191531       7.74497020       1.87769590
Si      -1.25125734       4.41393745       1.87769590
Si       1.92317266       5.57772891       1.87769590
Si       7.04329860       3.29058937       1.87769590
Si       4.44821063       1.12334808       1.87769590
Si       3.86886860       4.45438083       1.87769590
24
Lattice="10.422357751069578 -2.5694180032416655e-15 -1.0743287166413612e-29 -5.211178875534786 9.026026579755905 -1.4676137179145827e-29 5.323404211246442e-30 1.1571513696325687e-29 5.030991385292258" Properties=species:S:1:pos:R:3 unique_starting_index=210 config_type=initial n_minim_iter=3 stress="0.0013282841693692527 7.365864402760984e-17 -8.057880325950313e-17 7.365864402760984e-17 0.0013282841693693127 3.3662469483955453e-17 -8.057880325950313e-17 3.3662469483955453e-17 0.009475424233071286" pbc="T T T"
Si       5.10187825       6.27053167       4.04593479
Si       2.44097891       1.28309034       4.04593479
Si       8.09067947       1.47240458       4.04593479
Si       2.87950059       7.55362201       4.04593479
Si      -0.10930062       2.75549492       4.04593479
Si      -2.77019997       7.74293624       4.04593479
Si       1.39751474       5.59669197       4.18491919
Si      -0.33445591       7.43796386       4.18491919
Si      -1.06305882       5.01739734       4.18491919
Si       4.14812005       4.00862925       4.18491919
Si       6.60869361       3.42933462       4.18491919
Si       4.87672296       1.58806272       4.18491919
Si       6.82477439       1.20052165       1.08962483
Si       5.97028831       5.31016718       1.08962483
Si       2.83847392       2.51533776       1.08962483
Si      -2.37270495       6.51068883       1.08962483
Si       1.61359552       7.82550494       1.08962483
Si       0.75910944       3.71585941       1.08962483
Si      -0.68504337       7.87742754       1.80393313
Si      -1.26835181       4.49404785       1.80393313
Si       1.95339518       5.68057778       1.80393313
Si       7.16457405       3.34544881       1.80393313
Si       4.52613551       1.14859904       1.80393313
Si       3.94282707       4.53197874       1.80393313
24
Lattice="10.428035533878937 -2.5424409404769254e-15 -1.0810206204885979e-29 -5.214017766939466 9.03094368390598 -1.4787351491166938e-29 5.2141798823957686e-30 1.131360984991517e-29 4.954689942383234" Properties=species:S:1:pos:R:3 unique_starting_index=210 config_type=initial n_minim_iter=4 stress="-0.002431071429500811 1.8059257361070693e-16 -1.0136025870640469e-16 1.8059257361070693e-16 -0.002431071429500628 2.0224464765362438e-17 -1.0136025870640469e-16 2.0224464765362438e-17 -0.0022693626021407483" pbc="T T T"
Si       5.10600461       6.27617055       3.98710930
Si       2.43971009       1.28384444       3.98710930
Si       8.09633859       1.47092871       3.98710930
Si       2.88232083       7.56001499       3.98710930
Si      -0.10801315       2.75477314       3.98710930
Si      -2.77430767       7.74709926       3.98710930
Si       1.40021489       5.59587901       4.13029492
Si      -0.33226306       7.44562585       4.13029492
Si      -1.06795184       5.02038252       4.13029492
Si       4.14606593       4.01056118       4.13029492
Si       6.61423266       3.43506468       4.13029492
Si       4.88175471       1.58531784       4.13029492
Si       6.83076230       1.20030430       1.06630082
Si       5.97316037       5.31546153       1.06630082
Si       2.83813063       2.51517787       1.06630082
Si      -2.37588713       6.51576583       1.06630082
Si       1.61674453       7.83063939       1.06630082
Si       0.75914261       3.71548216       1.06630082
Si      -0.68412885       7.88161403       1.77199090
Si      -1.26959577       4.49766371       1.77199090
Si       1.95372463       5.68260964       1.77199090
Si       7.16774239       3.34833405       1.77199090
Si       4.52988892       1.14932967       1.77199090
Si       3.94442199       4.53327998       1.77199090
24
Lattice="10.459655243756014 -2.567560971387302e-15 -1.0925928089289638e-29 -5.229827621878004 9.05832715591982 -1.504859310840365e-29 5.152129710468038e-30 1.1149071213721383e-29 4.935409459735998" Properties=species:S:1:pos:R:3 unique_starting_index=210 config_type=initial n_minim_iter=5 stress="0.00248881457651278 5.365745966142285e-17 -7.18202723344266e-17 5.365745966142285e-17 0.0024888145765126586 1.7687967897238948e-17 -7.18202723344266e-17 1.7687967897238948e-17 9.433272302928045e-05" pbc="T T T"
Si       5.11538249       6.32156387       3.97212995
Si       2.42732909       1.26926926       3.97212995
Si       8.14677128       1.46749404       3.97212995
Si       2.91694366       7.59083313       3.97212995
Si      -0.11444513       2.73676329       3.97212995
Si      -2.80249853       7.78905791       3.97212995
Si       1.41253262       5.58525114       4.14941861
Si      -0.31340806       7.48899073       4.14941861
Si      -1.09912456       5.04241246       4.14941861
Si       4.13070306       4.01591471       4.14941861
Si       6.64236025       3.47307602       4.14941861
Si       4.91641956       1.56933644       4.14941861
Si       6.84525157       1.19755306       1.03448234
Si       5.99991808       5.32938523       1.03448234
Si       2.84431321       2.53138887       1.03448234
Si      -2.38551441       6.52693829       1.03448234
Si       1.61542395       7.86077410       1.03448234
Si       0.77009046       3.72894193       1.03448234
Si      -0.66120064       7.91831334       1.75703248
Si      -1.29703256       4.52655394       1.75703248
Si       1.95823320       5.67178705       1.75703248
Si       7.18806083       3.38654012       1.75703248
Si       4.56862698       1.14001382       1.75703248
Si       3.93279506       4.53177323       1.75703248
24
Lattice="10.433582206387213 -2.5488106854770305e-15 -1.1012084932361676e-29 -5.216791103193604 9.035747243204618 -1.5263158133596687e-29 5.107660260639073e-30 1.1012540054809253e-29 4.946299538558143" Properties=species:S:1:pos:R:3 unique_starting_index=210 config_type=initial n_minim_iter=6 stress="0.0005267934154682514 6.285447853792353e-17 -9.011522775228809e-17 6.285447853792353e-17 0.0005267934154684951 9.642448412067814e-17 -9.011522775228809e-17 9.642448412067814e-17 0.000755118389830507" pbc="T T T"
Si       5.08880516       6.32179613       3.96600101
Si       2.41434358       1.24613648       3.96600101
Si       8.14722457       1.46781464       3.96600101
Si       2.93043347       7.56793261       3.96600101
Si      -0.12798594       2.71395112       3.96600101
Si      -2.80244752       7.78961077       3.96600101
Si       1.40811717       5.56385417       4.14168022
Si      -0.30570654       7.47328541       4.14168022
Si      -1.10241064       5.03435492       4.14168022
Si       4.11438047       4.00139233       4.14168022
Si       6.62490828       3.47189308       4.14168022
Si       4.91108457       1.56246185       4.14168022
Si       6.81340794       1.20281398       1.04443718
Si       5.98521078       5.29917737       1.04443718
Si       2.85175460       2.53375590       1.04443718
Si      -2.36503651       6.50199135       1.04443718
Si       1.59661683       7.83293327       1.04443718
Si       0.76841967       3.73656988       1.04443718
Si      -0.64683968       7.90049933       1.78502488
Si      -1.30182218       4.52531799       1.78502488
Si       1.94866185       5.64567718       1.78502488
Si       7.16545296       3.39007008       1.78502488
Si       4.56995143       1.13524792       1.78502488
Si       3.91496893       4.51042926       1.78502488
24
Lattice="10.33238900376331 -2.418690989923235e-15 -1.1003357846823324e-29 -5.166194501881653 8.948111359042013 -1.538726435970847e-29 5.075765407106757e-30 1.091063690893569e-29 4.959637240141892" Properties=species:S:1:pos:R:3 unique_starting_index=210 config_type=initial n_minim_iter=7 stress="-0.005038382735272625 5.786635002136999e-17 -1.975687933784013e-16 5.786635002136999e-17 -0.005038382735272439 8.353092367101525e-18 -1.975687933784013e-16 8.353092367101525e-18 -0.004830612000240328" pbc="T T T"
Si       5.02604180       6.29970830       3.96238806
Si       2.36366068       1.20282573       3.96238806
Si       8.10888103       1.44557733       3.96238806
Si       2.94268652       7.50253403       3.96238806
Si      -0.14015270       2.64840306       3.96238806
Si      -2.80253382       7.74528563       3.96238806
Si       1.40351078       5.47411567       4.18449206
Si      -0.27628412       7.42652952       4.18449206
Si      -1.12722666       4.99557754       4.18449206
Si       4.03896784       3.95253383       4.18449206
Si       6.56970528       3.47399569       4.18449206
Si       4.88991038       1.52158185       4.18449206
Si       6.75582084       1.22218397       1.01096073
Si       5.89603622       5.23962049       1.01096073
Si       2.84672645       2.48630691       1.01096073
Si      -2.31946806       6.46180446       1.01096073
Si       1.58962634       7.72592740       1.01096073
Si       0.72984172       3.70849087       1.01096073
Si      -0.63344118       7.80214636       1.80879444
Si      -1.27394185       4.49846203       1.80879444
Si       1.90738304       5.59561434       1.80879444
Si       7.07357754       3.35249703       1.80879444
Si       4.53275332       1.14596501       1.80879444
Si       3.89225265       4.44964934       1.80879444
24
Lattice="10.313039734793291 -2.3456548496985124e-15 -1.1150739078764872e-29 -5.156519867396643 8.931354400569317 -1.5719606514316286e-29 5.135252945973894e-30 1.0985831793976174e-29 5.0903124431626585" Properties=species:S:1:pos:R:3 unique_starting_index=210 config_type=initial n_minim_iter=8 stress="0.009154134468238342 -2.02217923563486e-16 -3.0972019206210735e-16 -2.02217923563486e-16 0.009154134468238402 -2.367891376621616e-17 -3.0972019206210735e-16 -2.367891376621616e-17 0.008898563866021503" pbc="T T T"
Si       5.02607711       6.30550145       4.04817578
Si       2.33927675       1.19995974       4.04817578
Si       8.10420574       1.42589323       4.04817578
Si       2.94768588       7.50546118       4.04817578
Si      -0.13044276       2.62585296       4.04817578
Si      -2.81724312       7.73139467       4.04817578
Si       1.40739720       5.44510093       4.30151645
Si      -0.26277446       7.42764567       4.30151645
Si      -1.14462274       4.98996221       4.30151645
Si       4.01189713       3.94139220       4.30151645
Si       6.56391707       3.48625348       4.30151645
Si       4.89374540       1.50370874       4.30151645
Si       6.76771981       1.24601965       1.00116594
Si       5.85009516       5.23800747       1.00116594
Si       2.85174462       2.44732730       1.00116594
Si      -2.30477524       6.48402711       1.00116594
Si       1.61119995       7.68533476       1.00116594
Si       0.69357530       3.69334694       1.00116594
Si      -0.63683943       7.77017593       1.90472312
Si      -1.25423016       4.49474732       1.90472312
Si       1.89106959       5.59778556       1.90472312
Si       7.04758946       3.33356884       1.90472312
Si       4.51968044       1.16117848       1.90472312
Si       3.90228970       4.43660709       1.90472312
24
Lattice="10.117393053423553 -1.917609634978022e-15 -1.1131057611286308e-29 -5.058696526711774 8.761919404337005 -1.5798417709115333e-29 5.228932597846659e-30 1.1133892637287841e-29 5.256357216614379" Properties=species:S:1:pos:R:3 unique_starting_index=210 config_type=initial n_minim_iter=9 stress="0.00932924625390045 -1.3795455523618438e-16 -3.589439334426801e-16 -1.3795455523618438e-16 0.009329246253901182 -4.479353434266436e-17 -3.589439334426801e-16 -4.479353434266436e-17 0.009560729110443122" pbc="T T T"
Si       4.94736632       6.24851243       4.13465314
Si       2.23233940       1.16028870       4.13465314
Si       7.99638387       1.35311828       4.13465314
Si       2.93768734       7.40880113       4.13465314
Si      -0.11133021       2.51340698       4.13465314
Si      -2.82635713       7.60163071       4.13465314
Si       1.40329309       5.27843518       4.47903303
Si      -0.21420897       7.33798929       4.47903303
Si      -1.18908412       4.90741435       4.47903303
Si       3.86961241       3.85450506       4.47903303
Si       6.46198962       3.48348423       4.47903303
Si       4.84448755       1.42393013       4.47903303
Si       6.67628378       1.26837202       0.92955928
Si       5.68080878       5.14764535       0.92955928
Si       2.81899703       2.34590205       0.92955928
Si      -2.23969950       6.41601737       0.92955928
Si       1.61758725       7.49354739       0.92955928
Si       0.62211225       3.61427407       0.92955928
Si      -0.60437427       7.60088823       2.07949021
Si      -1.22167863       4.43807182       2.07949021
Si       1.82605290       5.48487877       2.07949021
Si       6.88474943       3.27704064       2.07949021
Si       4.45432226       1.16103118       2.07949021
Si       3.83701790       4.32384759       2.07949021
24
Lattice="9.953636279486428 -1.6672801189635014e-15 -1.115321342537228e-29 -4.9768181397432105 8.620101878065672 -1.5951068096793731e-29 5.2561510821263736e-30 1.1131317268130067e-29 5.365770727915343" Properties=species:S:1:pos:R:3 unique_starting_index=210 config_type=initial n_minim_iter=10 stress="0.00417434160120333 -1.2298556153870346e-17 -2.4247447475914963e-16 -1.2298556153870346e-17 0.004174341601204503 -4.7747335656202516e-17 -2.4247447475914963e-16 -4.7747335656202516e-17 0.005554644868642508" pbc="T T T"
Si       4.90114233       6.16967359       4.19329352
Si       2.15997106       1.15967697       4.19329352
Si       7.86934103       1.29075133       4.19329352
Si       2.89252289       7.32935056       4.19329352
Si      -0.07567581       2.45042830       4.19329352
Si      -2.81684708       7.46042491       4.19329352
Si       1.39666157       5.16577027       4.58520729
Si      -0.19520092       7.24676115       4.58520729
Si      -1.20146065       4.82767235       4.58520729
Si       3.77535749       3.79242953       4.58520729
Si       6.37347971       3.45433162       4.58520729
Si       4.78161722       1.37334074       4.58520729
Si       6.60101156       1.27058777       0.88281771
Si       5.55276922       5.08134982       0.88281771
Si       2.77667364       2.26816430       0.88281771
Si      -2.20014450       6.35193758       0.88281771
Si       1.62419342       7.34951412       0.88281771
Si       0.57595108       3.53875207       0.88281771
Si      -0.58944904       7.46290513       2.20334977
Si      -1.19152276       4.37817148       2.20334977
Si       1.78097181       5.39912716       2.20334977
Si       6.75778995       3.22097472       2.20334977
Si       4.38736910       1.15719676       2.20334977
Si       3.78529538       4.24193041       2.20334977
24
Lattice="9.940786431132807 -1.1584034929368903e-15 -1.1140022218023078e-29 -4.970393215566398 8.608973582956658 -1.5920940124385478e-29 5.2026423615629895e-30 1.1012607864813735e-29 5.316946686638108" Properties=species:S:1:pos:R:3 unique_starting_index=210 config_type=initial n_minim_iter=11 stress="0.0026604566140448955 3.2938936579026333e-17 -3.2365555090428465e-16 3.2938936579026333e-17 0.00266045661404552 -1.488351949126375e-17 -3.2365555090428465e-16 -1.488351949126375e-17 -0.003889744866713408" pbc="T T T"
Si       4.91707987       6.13183794       4.16342590
Si       2.17191907       1.19239712       4.16342590
Si       7.82218070       1.28473854       4.16342590
Si       2.85178749       7.32423505       4.16342590
Si      -0.05331335       2.47713565       4.16342590
Si      -2.79847414       7.41657648       4.16342590
Si       1.39429200       5.18562011       4.52194112
Si      -0.21763154       7.22365583       4.52194112
Si      -1.17666047       4.80867124       4.52194112
Si       3.79373275       3.80030235       4.52194112
Si       6.36468522       3.42335348       4.52194112
Si       4.75276168       1.38531776       4.52194112
Si       6.59458427       1.25194039       0.90061553
Si       5.55928212       5.08510732       0.90061553
Si       2.75731326       2.27192589       0.90061553
Si      -2.21307996       6.33704771       0.90061553
Si       1.62419106       7.35703320       0.90061553
Si       0.58888890       3.52386627       0.90061553
Si      -0.59943201       7.45603255       2.17072714
Si      -1.18700438       4.36183397       2.17072714
Si       1.78643639       5.40008066       2.17072714
Si       6.75682960       3.20889293       2.17072714
Si       4.37096121       1.15294104       2.17072714
Si       3.78338883       4.24713962       2.17072714
24
Lattice="9.79174882257803 -2.8618731800358505e-16 -1.1234790299522237e-29 -4.895874411289009 8.479903227828935 -1.622161066123116e-29 5.1857555963282235e-30 1.0894138735037511e-29 5.410388434760402" Properties=species:S:1:pos:R:3 unique_starting_index=210 config_type=initial n_minim_iter=12 stress="-0.0066432430190418446 1.7126312244890632e-16 -3.437619095619461e-16 1.7126312244890632e-16 -0.0066432430190416555 -1.9523501693309666e-17 -3.437619095619461e-16 -1.9523501693309666e-17 0.0008150176656893191" pbc="T T T"
Si       4.86360685       6.04485337       4.22495026
Si       2.12494882       1.18958041       4.22495026
Si       7.69906756       1.24546946       4.22495026
Si       2.80319315       7.23443377       4.22495026
Si      -0.03226756       2.43504987       4.22495026
Si      -2.77092559       7.29032282       4.22495026
Si       1.38912350       5.10536728       4.60867279
Si      -0.22006510       7.13023583       4.60867279
Si      -1.16905840       4.72420336       4.60867279
Si       3.72681601       3.75569988       4.60867279
Si       6.28499791       3.37453595       4.60867279
Si       4.67580932       1.34966741       4.60867279
Si       6.50389769       1.23817345       0.91231582
Si       5.46751032       5.01345390       0.91231582
Si       2.71621523       2.22827589       0.91231582
Si      -2.17965919       6.25162735       0.91231582
Si       1.60802328       7.24172979       0.91231582
Si       0.57163591       3.46644933       0.91231582
Si      -0.59132724       7.32445294       2.21738706
Si      -1.15162427       4.30557235       2.21738706
Si       1.74295152       5.32978118       2.21738706
Si       6.63882593       3.15012205       2.21738706
Si       4.30454717       1.15545030       2.21738706
Si       3.74425014       4.17433089       2.21738706
24
Lattice="9.87308764182246 -3.400056141622932e-17 -1.1395693623755688e-29 -4.936543820911221 8.550344711608439 -1.6517006251275177e-29 5.0778920472890896e-30 1.0625795060171394e-29 5.3509122636194375" Properties=species:S:1:pos:R:3 unique_starting_index=210 config_type=initial n_minim_iter=13 stress="0.0022344796011487854 3.770258634515799e-16 -3.7825476131159156e-16 3.770258634515799e-16 0.0022344796011487225 2.457795720023337e-18 -3.7825476131159156e-16 2.457795720023337e-18 0.0019117654127636563" pbc="T T T"
Si       4.90302170       6.10534705       4.16294015
Si       2.13419115       1.19346783       4.16294015
Si       7.77241861       1.25152984       4.16294015
Si       2.83587479       7.29881488       4.16294015
Si      -0.03352212       2.44499767       4.16294015
Si      -2.80235267       7.35687689       4.16294015
Si       1.42428277       5.14862197       4.56632389
Si      -0.23443498       7.20949879       4.56632389
Si      -1.18984779       4.74256867       4.56632389
Si       3.74669603       3.80777605       4.56632389
Si       6.36082659       3.40172275       4.56632389
Si       4.70210884       1.34084593       4.56632389
Si       6.54225867       1.24097642       0.93071144
Si       5.52724120       5.04527401       0.93071144
Si       2.74013159       2.26409430       0.93071144
Si      -2.19641223       6.28625042       0.93071144
Si       1.60571485       7.30936830       0.93071144
Si       0.59069738       3.50507071       0.93071144
Si      -0.57975275       7.36520385       2.17183810
Si      -1.15203344       4.36566218       2.17183810
Si       1.73178619       5.36982340       2.17183810
Si       6.66833001       3.18052132       2.17183810
Si       4.35679107       1.18514086       2.17183810
Si       3.78451038       4.18468254       2.17183810
24
Lattice="9.830234746205656 5.41148836866959e-17 -1.1456736884885395e-29 -4.915117373102821 8.513233015378564 -1.6668017893911112e-29 5.0516432643037636e-30 1.0533448797821599e-29 5.372729645995376" Properties=species:S:1:pos:R:3 unique_starting_index=210 config_type=initial n_minim_iter=14 stress="0.0010753330711311896 2.2074676688901227e-16 -4.2346835035196425e-16 2.2074676688901227e-16 0.0010753330711311896 -4.049493262840941e-17 -4.2346835035196425e-16 -4.049493262840941e-17 0.0011352936767362255" pbc="T T T"
Si       4.89859936       6.09128921       4.16306458
Si       2.10572387       1.19666689       4.16306458
Si       7.74102889       1.22527692       4.16306458
Si       2.82591151       7.28795610       4.16306458
Si      -0.01651801       2.42194381       4.16306458
Si      -2.80939350       7.31656613       4.16306458
Si       1.43864442       5.11612210       4.59868805
Si      -0.23489655       7.20107459       4.59868805
Si      -1.20374788       4.70926935       4.59868805
Si       3.71136950       3.80396367       4.59868805
Si       6.35376179       3.39711092       4.59868805
Si       4.68022083       1.31215844       4.59868805
Si       6.52418521       1.23805174       0.91612625
Si       5.49595788       5.03108427       0.91612625
Si       2.72520902       2.24409702       0.91612625
Si      -2.18990835       6.26913601       0.91612625
Si       1.60906784       7.27518128       0.91612625
Si       0.58084051       3.48214876       0.91612625
Si      -0.56684666       7.32095887       2.20217680
Si      -1.14159565       4.36184998       2.20217680
Si       1.70844231       5.34365720       2.20217680
Si       6.62355969       3.16957583       2.20217680
Si       4.34827071       1.19227415       2.20217680
Si       3.77352172       4.15138304       2.20217680
24
Lattice="9.815654029529966 6.31245074102326e-16 -1.1539107685772998e-29 -4.907827014764974 8.500605744332034 -1.6843649769414964e-29 4.977741204421405e-30 1.0335942136677424e-29 5.349961332100365" Properties=species:S:1:pos:R:3 unique_starting_index=210 config_type=initial n_minim_iter=15 stress="-0.0007360832689559301 4.295194230660502e-16 -3.054139267661318e-16 4.295194230660502e-16 -0.0007360832689559939 -8.779406852479196e-17 -3.054139267661318e-16 -8.779406852479196e-17 -0.0010534467315159292" pbc="T T T"
Si       4.90385204       6.08996489       4.13033254
Si       2.08966371       1.20187800       4.13033254
Si       7.72996529       1.20876287       4.13033254
Si       2.82213828       7.29184289       4.13033254
Si      -0.00397498       2.41064087       4.13033254
Si      -2.81816330       7.29872775       4.13033254
Si       1.46960500       5.10616653       4.60104408
Si      -0.24904541       7.22023775       4.60104408
Si      -1.22055959       4.67480723       4.60104408
Si       3.68726743       3.82579853       4.60104408
Si       6.37743201       3.39443922       4.60104408
Si       4.65878160       1.28036801       4.60104408
Si       6.52322285       1.22526840       0.90660878
Si       5.49292905       5.03664250       0.90660878
Si       2.70732915       2.23869485       0.90660878
Si      -2.20049786       6.26191090       0.90660878
Si       1.61539583       7.27533735       0.90660878
Si       0.58510203       3.46396325       0.90660878
Si      -0.54739675       7.30317086       2.19172551
Si      -1.14320610       4.37496083       2.19172551
Si       1.69060285       5.32307981       2.19172551
Si       6.59842986       3.17752594       2.19172551
Si       4.36043027       1.19743490       2.19172551
Si       3.76462092       4.12564492       2.19172551
24
Lattice="9.850993599293602 4.991916570698887e-16 -1.1622231986675482e-29 -4.925496799646793 8.531210709506153 -1.6984938345896944e-29 4.91216796227522e-30 1.0171848623501403e-29 5.314638281752281" Properties=species:S:1:pos:R:3 unique_starting_index=210 config_type=initial n_minim_iter=16 stress="0.0021644433462982664 2.8659929660139996e-16 -2.6161817838072285e-16 2.8659929660139996e-16 0.0021644433462982664 1.1931280344203987e-16 -2.6161817838072285e-16 1.1931280344203987e-16 -0.0007433433771847708" pbc="T T T"
Si       4.90337246       6.10775812       4.09046343
Si       2.10983368       1.19256606       4.09046343
Si       7.76328426       1.23088654       4.09046343
Si       2.83778746       7.30032418       4.09046343
Si      -0.02212434       2.42345260       4.09046343
Si      -2.81566312       7.33864466       4.09046343
Si       1.49978896       5.13905105       4.56849063
Si      -0.27494644       7.26054053       4.56849063
Si      -1.22484252       4.66282985       4.56849063
Si       3.70065428       3.86838087       4.56849063
Si       6.42528576       3.39215966       4.56849063
Si       4.65055036       1.27067019       4.56849063
Si       6.55444279       1.22066605       0.91711791
Si       5.51664440       5.06598094       0.91711791
Si       2.70540321       2.24456373       0.91711791
Si      -2.22009359       6.28664699       0.91711791
Si       1.62894599       7.31054467       0.91711791
Si       0.59114760       3.46522977       0.91711791
Si      -0.53277847       7.34213289       2.17553343
Si      -1.16658756       4.39874458       2.17553343
Si       1.69936603       5.32154396       2.17553343
Si       6.62486283       3.20966676       2.17553343
Si       4.39271833       1.18907783       2.17553343
Si       3.75890924       4.13246614       2.17553343
24
Lattice="9.789104537495373 1.0341094846273556e-15 -1.169268616201768e-29 -4.894552268747677 8.477613209772503 -1.7161262619483095e-29 4.8799467896550204e-30 1.0058030592969228e-29 5.341947641400675" Properties=species:S:1:pos:R:3 unique_starting_index=210 config_type=initial n_minim_iter=17 stress="-0.0027501844772088585 4.2598896786659656e-16 -3.4923081463255077e-16 4.2598896786659656e-16 -0.0027501844772087943 1.149494040274943e-16 -3.4923081463255077e-16 1.149494040274943e-16 0.0028714525581734537" pbc="T T T"
Si       4.86893804       6.07512544       4.09397828
Si       2.09342256       1.17906132       4.09397828
Si       7.72129620       1.22342646       4.09397828
Si       2.82674393       7.25418676       4.09397828
Si      -0.02561422       2.40248778       4.09397828
Si      -2.80112971       7.29855189       4.09397828
Si       1.51905074       5.10866869       4.61112100
Si      -0.28920996       7.23881540       4.61112100
Si      -1.22984078       4.60774234       4.61112100
Si       3.66471149       3.86987088       4.61112100
Si       6.41360301       3.36894453       4.61112100
Si       4.60534231       1.23879782       4.61112100
Si       6.53589425       1.22310050       0.91478731
Si       5.46192131       5.04870021       0.91478731
Si       2.68584125       2.20581251       0.91478731
Si      -2.20871102       6.27180071       0.91478731
Si       1.64134198       7.25451272       0.91478731
Si       0.56736904       3.42891301       0.91478731
Si      -0.52219270       7.28835163       2.19210463
Si      -1.15624904       4.38120526       2.19210463
Si       1.67844174       5.28566955       2.19210463
Si       6.57299401       3.19194367       2.19210463
Si       4.37235957       1.18926159       2.19210463
Si       3.73830323       4.09640796       2.19210463
24
Lattice="9.811007973654776 1.0022644954866933e-15 -1.176689659146266e-29 -4.9055039868273775 8.49658214191672 -1.7309262180016302e-29 4.820816510620556e-30 9.906890938475265e-30 5.314340482839353" Properties=species:S:1:pos:R:3 unique_starting_index=210 config_type=initial n_minim_iter=18 stress="-0.00025845586595999966 5.403208439470447e-16 -3.75041810281425e-16 5.403208439470447e-16 -0.00025845586595916564 -4.561149981371156e-17 -3.75041810281425e-16 -4.561149981371156e-17 -0.00036777570077376766" pbc="T T T"
Si       4.87614590       6.08479050       4.07183316
Si       2.10335188       1.18047098       4.07183316
Si       7.73701418       1.23132068       4.07183316
Si       2.83151020       7.26526147       4.07183316
Si      -0.02935809       2.41179165       4.07183316
Si      -2.80215211       7.31611117       4.07183316
Si       1.51745525       5.12427840       4.59758640
Si      -0.29097891       7.24859774       4.59758640
Si      -1.22647634       4.62028815       4.59758640
Si       3.67902765       3.87629400       4.59758640
Si       6.42295923       3.37230375       4.59758640
Si       4.61452508       1.24798441       4.59758640
Si       6.56693531       1.24002159       0.90048422
Si       5.45365012       5.06712202       0.90048422
Si       2.69592653       2.18943855       0.90048422
Si      -2.20957746       6.30714360       0.90048422
Si       1.66143133       7.25656056       0.90048422
Si       0.54814613       3.42946013       0.90048422
Si      -0.53136409       7.30482125       2.18104313
Si      -1.15497474       4.38399672       2.18104313
Si       1.68633883       5.30434632       2.18104313
Si       6.59184281       3.19223583       2.18104313
Si       4.37413990       1.19176090       2.18104313
Si       3.75052925       4.11258543       2.18104313
24
Lattice="9.80038375982438 9.13894668152882e-16 -1.1816539985435482e-29 -4.900191879912181 8.48738130284436 -1.739766726876752e-29 4.7795878063107905e-30 9.794538715052552e-30 5.304406267887152" Properties=species:S:1:pos:R:3 unique_starting_index=210 config_type=initial n_minim_iter=19 stress="0.0010572614879743988 3.726590848596423e-16 -3.1201705957188147e-16 3.726590848596423e-16 0.0010572614879753007 -4.806069224050755e-17 -3.1201705957188147e-16 -4.806069224050755e-17 -0.0005590032537801741" pbc="T T T"
Si       4.87966475       6.08647594       4.03236471
Si       2.08950860       1.18267567       4.03236471
Si       7.73140229       1.21822970       4.03236471
Si       2.83121041       7.26915161       4.03236471
Si      -0.02052713       2.40090537       4.03236471
Si      -2.81068328       7.30470564       4.03236471
Si       1.54141140       5.12044392       4.60790531
Si      -0.30494833       7.26206078       4.60790531
Si      -1.23646307       4.59225792       4.60790531
Si       3.66372881       3.89512339       4.60790531
Si       6.44160328       3.36693739       4.60790531
Si       4.59524355       1.22532053       4.60790531
Si       6.58454298       1.25174085       0.88892694
Si       5.42407290       5.07651107       0.88892694
Si       2.69195976       2.15912939       0.88892694
Si      -2.20823212       6.32825192       0.88892694
Si       1.68435110       7.23564046       0.88892694
Si       0.52388102       3.41087024       0.88892694
Si      -0.51811186       7.28355461       2.19978364
Si      -1.14849551       4.39690598       2.19978364
Si       1.66660736       5.29430204       2.19978364
Si       6.56679924       3.19307927       2.19978364
Si       4.38208002       1.20382671       2.19978364
Si       3.75169637       4.09047534       2.19978364
24
Lattice="9.835724237028673 3.6749140003319805e-16 -1.1762181078556945e-29 -4.91786211851433 8.517987053885147 -1.7258655859262557e-29 4.7045110027568256e-30 9.651097354900963e-30 5.2042243583203645" Properties=species:S:1:pos:R:3 unique_starting_index=210 config_type=initial n_minim_iter=20 stress="0.005877518017066996 1.5685256000211327e-16 -4.2255977812257627e-16 1.5685256000211327e-16 0.005877518017068235 -8.78476188323524e-17 -4.2255977812257627e-16 -8.78476188323524e-17 0.001062437561681184" pbc="T T T"
Si       4.89952121       6.11726806       3.87437562
Si       2.08825410       1.18447582       3.87437562
Si       7.76581105       1.21624320       3.87437562
Si       2.84794893       7.30174387       3.87437562
Si      -0.01834091       2.40071901       3.87437562
Si      -2.82960802       7.33351125       3.87437562
Si       1.56277611       5.16098508       4.60202219
Si      -0.33307012       7.29089833       4.60202219
Si      -1.22970599       4.58409071       4.60202219
Si       3.68815613       3.93389635       4.60202219
Si       6.48063823       3.35700198       4.60202219
Si       4.58479200       1.22708873       4.60202219
Si       6.65662779       1.28208210       0.87702646
Si       5.39709468       5.12376773       0.87702646
Si       2.69986389       2.11213724       0.87702646
Si      -2.21799823       6.40584982       0.87702646
Si       1.73876567       7.23590496       0.87702646
Si       0.47923256       3.39421933       0.87702646
Si      -0.47863786       7.29302324       2.15403642
Si      -1.15876235       4.45696290       2.15403642
Si       1.63740020       5.28598798       2.15403642
Si       6.55526232       3.23199908       2.15403642
Si       4.43922426       1.22496382       2.15403642
Si       3.75909977       4.06102416       2.15403642
24
Lattice="9.800880660332929 2.8986108099780723e-16 -1.1587806894828227e-29 -4.900440330166459 8.48781163130792 -1.6928769970276573e-29 4.6807554363470566e-30 9.642351367543111e-30 5.123628622481042" Properties=species:S:1:pos:R:3 unique_starting_index=210 config_type=initial n_minim_iter=21 stress="0.004969977565959868 1.9952647153897785e-16 -3.254677887571186e-16 1.9952647153897785e-16 0.004969977565961268 -9.507462416674532e-17 -3.254677887571186e-16 -9.507462416674532e-17 -6.331251975399106e-05" pbc="T T T"
Si       4.88924494       6.11009792       3.69761705
Si       2.06475817       1.17916137       3.69761705
Si       7.74731788       1.19855235       3.69761705
Si       2.84687755       7.28925929       3.69761705
Si      -0.01119539       2.37771372       3.69761705
Si      -2.83568216       7.30865027       3.69761705
Si       1.56365573       5.16363080       4.61309939
Si      -0.35322298       7.26016182       4.61309939
Si      -1.21043275       4.55183066       4.61309939
Si       3.69000758       3.93598098       4.61309939
Si       6.46409606       3.32418084       4.61309939
Si       4.54721735       1.22764982       4.61309939
Si       6.69303888       1.31116579       0.86227052
Si       5.31885834       5.14075881       0.86227052
Si       2.68942377       2.03588704       0.86227052
Si      -2.21101656       6.45192460       0.86227052
Si       1.79259855       7.17664585       0.86227052
Si       0.41841801       3.34705283       0.86227052
Si      -0.41851797       7.24906919       2.15626230
Si      -1.16817875       4.50082985       2.15626230
Si       1.58669672       5.22572424       2.15626230
Si       6.48713705       3.26208740       2.15626230
Si       4.48192236       1.23874245       2.15626230
Si       3.73226158       3.98698179       2.15626230
