8
Lattice="6.182163089246506 0.5842837289878496 0.9024854335169502 -2.0607578217384335 5.857798646137967 -0.902485521855411 -2.0607577597969433 -3.2210058517417988 4.975279555381005" Properties=species:S:1:pos:R:3 unique_starting_index=63 config_type=initial n_minim_iter=10 energy=-1304.3589137243057 free_energy=-1304.3589137243057 pbc="T T T"
Si       1.98354562       0.07215083       5.08644660
Si      -0.45157795      -1.05224678       3.35014563
Si       0.76589160       5.39035980       0.41113158
Si       0.76607601       2.70834874       2.14769557
Si       0.07710190       3.14892569      -0.11116713
Si       2.51222547       4.27332330       1.62513384
Si       1.29475592      -2.16928328       4.56414789
Si       1.29457151       0.51272777       2.82758390
