6
Lattice="5.129828796308623 -1.7034511115726257e-06 -1.7034511313915117e-06 2.5649165103403893 6.360705849607468 -8.201001419413282e-07 2.5649165103403915 -8.833516806678958e-07 6.360705849607454" Properties=species:S:1:pos:R:3 unique_starting_index=132 config_type=initial n_minim_iter=1 energy=-974.4622863359461 free_energy=-974.4622863359461 pbc="T T T"
Si       7.69474633       5.38469650       4.84257242
Si       2.56491497       0.97600676       1.51813089
Si       5.12983083       1.51813001       5.38469738
Si       5.12983047       4.84257325       0.97600593
Si       4.11069198      -0.00000137      -0.00000137
Si       3.58405282       6.36070551      -0.00000117
6
Lattice="5.1140009959909145 -1.6981952083482306e-06 -1.6981952280854156e-06 2.5570026235065297 6.400833184077036 -8.17272685839089e-07 2.5570026235065324 -8.809232376955661e-07 6.400833184077018" Properties=species:S:1:pos:R:3 unique_starting_index=132 config_type=initial n_minim_iter=2 stress="0.00199229357324141 -6.651730425695058e-10 -6.651727972600978e-10 -6.651730425695058e-10 -1.0829961055866486e-05 1.6189910757432656e-16 -6.651727972600978e-10 1.6189910757432656e-16 -1.0829961055781705e-05" pbc="T T T"
Si       7.67100466       5.41807191       4.87247826
Si       2.55700108       0.98275870       1.52835239
Si       5.11400305       1.52835152       5.41807278
Si       5.11400268       4.87247909       0.98275787
Si       4.09916938      -0.00000136      -0.00000137
Si       3.57183373       6.40083285      -0.00000116
6
Lattice="5.077123313595611 -1.6859493164055e-06 -1.6859493359946432e-06 2.538563787757645 6.417241787693028 -8.110681677726628e-07 2.5385637877576475 -8.748818655298513e-07 6.417241787693008" Properties=species:S:1:pos:R:3 unique_starting_index=132 config_type=initial n_minim_iter=3 stress="-0.0040494847726456566 8.884843725757374e-10 8.884847443855469e-10 8.884843725757374e-10 -0.0013738728415740894 -3.535074558203006e-16 8.884847443855469e-10 -3.535074558203006e-16 -0.0013738728415741573" pbc="T T T"
Si       7.61568814       5.43246005       4.88660545
Si       2.53856224       0.98477917       1.53063382
Si       5.07712537       1.53063295       5.43246092
Si       5.07712501       4.88660627       0.98477835
Si       4.06534691      -0.00000135      -0.00000136
Si       3.55033968       6.41724145      -0.00000116
6
Lattice="5.075098383066658 -1.6852769021771862e-06 -1.6852769217382564e-06 2.5375513298907784 6.439519197337649 -8.106212175317425e-07 2.5375513298907815 -8.746564041744984e-07 6.439519197337626" Properties=species:S:1:pos:R:3 unique_starting_index=132 config_type=initial n_minim_iter=4 stress="-0.0005170292153395998 1.28594708199621e-10 1.2859488034106925e-10 1.28594708199621e-10 -0.0001297746117486291 -1.4655102497506608e-16 1.2859488034106925e-10 -1.4655102497506608e-16 -0.0001297746117490174" pbc="T T T"
Si       7.61265076       5.45184464       4.90542890
Si       2.53754978       0.98767199       1.53408778
Si       5.07510045       1.53408692       5.45184551
Si       5.07510009       4.90542972       0.98767118
Si       4.05862699      -0.00000135      -0.00000136
Si       3.55402222       6.43951886      -0.00000116
6
Lattice="5.09217243347546 -1.6909466450477982e-06 -1.6909466646123371e-06 2.5460883614900296 6.458776854030089 -8.133603713612829e-07 2.546088361490033 -8.775869953002949e-07 6.4587768540300585" Properties=species:S:1:pos:R:3 unique_starting_index=132 config_type=initial n_minim_iter=5 stress="0.00232009846778041 -6.094931246763615e-10 -6.094931451810696e-10 -6.094931246763615e-10 0.0004846504482449534 -1.156266727713102e-16 -6.094931451810696e-10 -1.156266727713102e-16 0.00048465044824423425" pbc="T T T"
Si       7.63826185       5.47125861       4.92953449
Si       2.54608680       0.98751567       1.52923985
Si       5.09217450       1.52923898       5.47125948
Si       5.09217414       4.92953531       0.98751485
Si       4.07615153      -0.00000135      -0.00000136
Si       3.56210876       6.45877652      -0.00000116
6
Lattice="5.08139026470578 -1.6873662336727194e-06 -1.687366253153012e-06 2.5406972828618666 6.476112697296585 -8.114840089880299e-07 2.540697282861871 -8.758829482693873e-07 6.476112697296551" Properties=species:S:1:pos:R:3 unique_starting_index=132 config_type=initial n_minim_iter=6 stress="0.0008356154617516497 -2.0698991390328448e-10 -2.0699000037233744e-10 -2.0698991390328448e-10 0.00021227872340072486 -2.276270846259634e-16 -2.0699000037233744e-10 -2.276270846259634e-16 0.00021227872339987466" pbc="T T T"
Si       7.62208861       5.48734108       4.94767690
Si       2.54069571       0.98876905       1.52843328
Si       5.08139234       1.52843241       5.48734195
Si       5.08139198       4.94767772       0.98876823
Si       4.06677630      -0.00000135      -0.00000136
Si       3.55531074       6.47611236      -0.00000116
6
Lattice="5.075931422750382 -1.6855535278178424e-06 -1.6855535472537621e-06 2.53796786397585 6.482411655015257 -8.105463741260766e-07 2.5379678639758536 -8.750078779524924e-07 6.4824116550152215" Properties=species:S:1:pos:R:3 unique_starting_index=132 config_type=initial n_minim_iter=7 stress="-2.147810638150354e-05 7.584372253772272e-12 7.58425876917406e-12 7.584372253772272e-12 1.3613174803347028e-06 -4.0848576248965284e-16 7.58425876917406e-12 -4.0848576248965284e-16 1.3613174792853736e-06" pbc="T T T"
Si       7.61390035       5.49292080       4.95444436
Si       2.53796629       0.98948830       1.52796478
Si       5.07593350       1.52796391       5.49292166
Si       5.07593314       4.95444518       0.98948748
Si       4.06201645      -0.00000135      -0.00000136
Si       3.55188233       6.48241132      -0.00000116
6
Lattice="5.067860831374348 -1.6828735439873773e-06 -1.6828735635345783e-06 2.533932570182637 6.488117744464718 -8.091781127264068e-07 2.533932570182642 -8.736961563105492e-07 6.488117744464681" Properties=species:S:1:pos:R:3 unique_starting_index=132 config_type=initial n_minim_iter=8 stress="-0.0011942135696139963 3.3098866238010937e-10 3.3098848994891473e-10 3.3098866238010937e-10 -0.0001974644200825463 -4.6780500740235915e-16 3.3098848994891473e-10 -4.6780500740235915e-16 -0.0001974644200836121" pbc="T T T"
Si       7.60179447       5.49318531       4.96312648
Si       2.53393100       0.99492988       1.52498875
Si       5.06786291       1.52498789       5.49318618
Si       5.06786256       4.96312730       0.99492906
Si       4.05482701      -0.00000135      -0.00000136
Si       3.54696589       6.48811741      -0.00000115
6
Lattice="5.070324227666074 -1.6836915585092004e-06 -1.683691578242078e-06 2.535164259445198 6.461366280489297 -8.097208219670008e-07 2.535164259445203 -8.739714587599226e-07 6.4613662804892575" Properties=species:S:1:pos:R:3 unique_starting_index=132 config_type=initial n_minim_iter=9 stress="-0.0001507946781166972 2.3910926845859956e-10 2.391091340042463e-10 2.3910926845859956e-10 0.0005692660228069187 -3.804164223239491e-16 2.391091340042463e-10 -3.804164223239491e-16 0.0005692660228059117" pbc="T T T"
Si       7.60548954       5.41206167       4.97183301
Si       2.53516270       1.04930206       1.48953076
Si       5.07032627       1.48952990       5.41206253
Si       5.07032597       4.97183382       1.04930124
Si       4.05697690      -0.00000135      -0.00000136
Si       3.54851108       6.46136594      -0.00000115
6
Lattice="5.091125561724606 -1.6905990120081052e-06 -1.6905990324436194e-06 2.5455648866964795 6.341577543284141 -8.137727353630212e-07 2.5455648866964826 -8.76826986029168e-07 6.341577543284105" Properties=species:S:1:pos:R:3 unique_starting_index=132 config_type=initial n_minim_iter=10 stress="0.004294391565474502 1.2640842021381882e-09 1.2640842019802637e-09 1.2640842021381882e-09 0.008101096086960115 -4.599795834209964e-16 1.2640842019802637e-09 -4.599795834209964e-16 0.00810109608695909" pbc="T T T"
Si       7.63669144       5.10450758       4.99455203
Si       2.54556338       1.23706739       1.34702299
Si       5.09112745       1.34702212       5.10450845
Si       5.09112738       4.99455285       1.23706657
Si       4.07770448      -0.00000135      -0.00000136
Si       3.55898546       6.34157721      -0.00000116
6
Lattice="5.093327846596274 -1.69133031990162e-06 -1.6913303404266045e-06 2.5466660251569184 6.329605907062469 -8.141981174849784e-07 2.5466660251569206 -8.771329106271591e-07 6.3296059070624375" Properties=species:S:1:pos:R:3 unique_starting_index=132 config_type=initial n_minim_iter=11 stress="0.004469357549095588 1.3016529233566786e-09 1.3016529545991493e-09 1.3016529233566786e-09 0.008389197951492964 -2.8695398389194214e-16 1.3016529545991493e-09 -2.8695398389194214e-16 0.008389197951492147" pbc="T T T"
Si       7.63999486       5.07919192       4.99339478
Si       2.54666453       1.25041142       1.33620860
Si       5.09332972       1.33620773       5.07919279
Si       5.09332967       4.99339561       1.25041060
Si       4.07981753      -0.00000136      -0.00000136
Si       3.56017583       6.32960557      -0.00000116
6
Lattice="5.1077800624100504 -1.6961294356873292e-06 -1.696129456468475e-06 2.553892116124857 6.278595386700072 -8.168517497954584e-07 2.5538921161248602 -8.792783888402489e-07 6.27859538670004" Properties=species:S:1:pos:R:3 unique_starting_index=132 config_type=initial n_minim_iter=12 stress="0.0031812725435752605 -3.0816742439392475e-10 -3.0816752015049915e-10 -3.0816742439392475e-10 0.0022532467500923064 1.3088237896103312e-16 -3.0816752015049915e-10 1.3088237896103312e-16 0.0022532467500915123" pbc="T T T"
Si       7.66167315       5.03212552       4.95345789
Si       2.55389063       1.24646729       1.32513497
Si       5.10778192       1.32513410       5.03212640
Si       5.10778187       4.95345871       1.24646646
Si       4.09252975      -0.00000136      -0.00000137
Si       3.56914192       6.27859505      -0.00000116
6
Lattice="5.090110661787716 -1.6902619961608485e-06 -1.6902620169987315e-06 2.5450574115658218 6.265803221317672 -8.139819673253095e-07 2.545057411565825 -8.76280730337963e-07 6.265803221317636" Properties=species:S:1:pos:R:3 unique_starting_index=132 config_type=initial n_minim_iter=13 stress="-0.0001433201326510471 2.7026022805248433e-11 2.702598415563219e-11 2.7026022805248433e-11 -6.193309437621135e-05 -8.318893279873908e-17 2.702598415563219e-11 -8.318893279873908e-17 -6.193309437713579e-05" pbc="T T T"
Si       7.63516905       5.01387540       4.94507711
Si       2.54505593       1.25192525       1.32072359
Si       5.09011251       1.32072272       5.01387627
Si       5.09011247       4.94507793       1.25192443
Si       4.07438640      -0.00000135      -0.00000136
Si       3.56078117       6.26580288      -0.00000116
