6
Lattice="3.7578794434376097 -0.2555523012068905 0.31520017757386054 -1.4970525243655832 5.433633589560419 0.015239192448921263 0.1209500913070114 -0.4131885048513871 6.570711131952421" Properties=species:S:1:pos:R:3 unique_starting_index=148 config_type=initial n_minim_iter=1 energy=-976.9399021977206 free_energy=-976.9399021977206 pbc="T T T"
Si       1.21132603       3.21359243       2.35166855
Si       2.27364076       1.62696145       0.84318184
Si      -0.82878814       3.51280087       3.60049794
Si       2.33147700       1.30058929       5.05230560
Si       0.45123798       0.41508305       3.99229947
Si       0.26541210       0.83404332       1.66869383
6
Lattice="3.784192265166675 -0.26760812548959784 0.3149168337359985 -1.523780287545262 5.458376239219954 0.02113965544499177 0.11774268700881389 -0.40958492546691755 6.631866038408468" Properties=species:S:1:pos:R:3 unique_starting_index=148 config_type=initial n_minim_iter=2 stress="0.01207146628820224 -5.281490941667246e-05 -0.00027252916666402295 -5.281490941667246e-05 0.007089006030107127 -0.0004558849264338259 -0.00027252916666402295 -0.0004558849264338259 0.007520491669051346" pbc="T T T"
Si       1.21559736       3.24024984       2.36761075
Si       2.27321755       1.63279502       0.85183656
Si      -0.84255904       3.53928957       3.63775555
Si       2.34287368       1.30306711       5.10510867
Si       0.44883606       0.40413697       4.02667732
Si       0.25841486       0.82147732       1.68834194
6
Lattice="3.7162189141421273 -0.3002196190376107 0.3088472074279127 -1.5495245194329772 5.408397508752021 0.04791570001994527 0.10785791056031348 -0.37679844936778295 6.6664345713837285" Properties=species:S:1:pos:R:3 unique_starting_index=148 config_type=initial n_minim_iter=3 stress="0.0010162236867452391 -0.0010355509908952308 -0.0022117364448440316 -0.0010355509908952308 -0.003167988015775052 -0.0020654659249590267 -0.0022117364448440316 -0.0020654659249590267 0.001590878209124506" pbc="T T T"
Si       1.18749126       3.26598168       2.36262647
Si       2.17205179       1.61660132       0.86864292
Si      -0.84701087       3.54833796       3.67160962
Si       2.29273998       1.28624545       5.15659504
Si       0.42577279       0.36087570       4.03922412
Si       0.22047917       0.75409787       1.71422903
6
Lattice="3.6446781719465426 -0.3313382169747646 0.32399833464449546 -1.5704208184594144 5.414644597761444 0.10618442086900126 0.1374743584150738 -0.2992257538892039 6.70541776064306" Properties=species:S:1:pos:R:3 unique_starting_index=148 config_type=initial n_minim_iter=4 stress="-0.011086180617944693 -0.0030828836582899723 -0.00023392048572619362 -0.0030828836582899723 -0.009270859053204846 -9.068278434996225e-05 -0.00023392048572619362 -9.068278434996225e-05 -0.00183217139546715" pbc="T T T"
Si       1.18544768       3.37509446       2.37955567
Si       2.06846502       1.63039402       0.92093900
Si      -0.81595261       3.60821744       3.72611777
Si       2.27720940       1.31770516       5.24063005
Si       0.42474505       0.35646385       4.06877667
Si       0.17012945       0.68288460       1.74653682
6
Lattice="3.6153647827622883 -0.33897522160125915 0.330851466529286 -1.571160133993457 5.435696878160657 0.1399713687089041 0.15210759221313327 -0.2559602589017165 6.707659776242577" Properties=species:S:1:pos:R:3 unique_starting_index=148 config_type=initial n_minim_iter=5 stress="-0.015317568866525797 -0.005077184665044895 3.456878204447624e-05 -0.005077184665044895 -0.010780659229395528 0.0010555928544503592 3.456878204447624e-05 0.0010555928544503592 -0.001966607295607827" pbc="T T T"
Si       1.20271548       3.46323604       2.38052448
Si       2.02314970       1.65199842       0.95196411
Si      -0.78846775       3.64458787       3.74341894
Si       2.27930583       1.34514880       5.27094555
Si       0.42586289       0.36652180       4.08064294
Si       0.13394683       0.64008586       1.75500261
6
Lattice="3.6175001696882405 -0.2969397571978408 0.35018443098495683 -1.5085892376302588 5.507534396071209 0.1676601269915554 0.19180604192538292 -0.21535253944404673 6.616024159601836" Properties=species:S:1:pos:R:3 unique_starting_index=148 config_type=initial n_minim_iter=6 stress="-0.0153354924846767 0.00022029265070006262 0.000894650043468024 0.00022029265070006262 0.00468482733001166 0.004026779427046818 0.000894650043468024 0.004026779427046818 -0.0035746872253660873" pbc="T T T"
Si       1.29649845       3.61532007       2.35960293
Si       2.03810122       1.71810865       0.98964623
Si      -0.69931895       3.68699607       3.69888078
Si       2.34087647       1.41667534       5.22701772
Si       0.45498393       0.42632202       4.05997493
Si       0.09609051       0.61663769       1.72360145
6
Lattice="3.695892106761157 -0.2794320002120738 0.35824947530659723 -1.515574969201214 5.441418250481956 0.12721661496952508 0.20734634467237506 -0.25498754402083385 6.573870578187016" Properties=species:S:1:pos:R:3 unique_starting_index=148 config_type=initial n_minim_iter=7 stress="-0.0020537703303381946 0.003668174203075243 0.00021297318582753729 0.003668174203075243 -0.0008084484168219724 0.0015814077297512145 0.00021297318582753729 0.0015814077297512145 -0.002236820850696852" pbc="T T T"
Si       1.34912576       3.55415316       2.32726799
Si       2.10462995       1.69058740       0.98698263
Si      -0.69273654       3.59731200       3.64527031
Si       2.39766511       1.37326427       5.17536717
Si       0.48496282       0.43102998       4.05214692
Si       0.09175384       0.62125518       1.68989561
6
Lattice="3.7313799990528653 -0.3029299447198231 0.36617436078413057 -1.561293996555411 5.442065707512316 0.0995718391561622 0.22342163853774585 -0.28503743658045466 6.567478265923239" Properties=species:S:1:pos:R:3 unique_starting_index=148 config_type=initial n_minim_iter=8 stress="0.0035591555877936116 -0.0019137246700208475 -0.0012427117667130683 -0.0019137246700208475 -0.0016325182015181222 6.999265357064505e-05 -0.0012427117667130683 6.999265357064505e-05 0.002603654975127446" pbc="T T T"
Si       1.36251009       3.54247438       2.30723030
Si       2.10679163       1.66223673       0.99813966
Si      -0.70553128       3.56809065       3.61604180
Si       2.40956987       1.32756866       5.16382442
Si       0.51034314       0.42352250       4.06386568
Si       0.07062350       0.61331412       1.66634031
6
Lattice="3.738719244688071 -0.2981435676956625 0.3787908529076642 -1.5538706352849603 5.464442339219492 0.07747398017064856 0.24587466180205533 -0.3070369529716435 6.541499695845995" Properties=species:S:1:pos:R:3 unique_starting_index=148 config_type=initial n_minim_iter=9 stress="0.002760619782627116 -0.0010418786511793843 -0.0014247859971674773 -0.0010418786511793843 0.004028738253639687 -0.0012158685295238158 -0.0014247859971674773 -0.0012158685295238158 0.0025947389581317745" pbc="T T T"
Si       1.38779199       3.54902192       2.29711677
Si       2.11041685       1.65865650       1.00486117
Si      -0.68498947       3.57028548       3.58256263
Si       2.42317784       1.31930058       5.14525335
Si       0.53905230       0.42108109       4.05439396
Si       0.07048020       0.62583890       1.64377035
6
Lattice="3.7504413126768994 -0.28149477096711384 0.40737846479948225 -1.5342493932024843 5.451458904853595 0.06573018275636981 0.2979693689655163 -0.3053460955279543 6.500402342122306" Properties=species:S:1:pos:R:3 unique_starting_index=148 config_type=initial n_minim_iter=10 stress="0.0014891597983782358 -0.0005558181315078458 0.0006297445266432117 -0.0005558181315078458 -0.0006381740317956587 -0.0016606572810633977 0.0006297445266432117 -0.0016606572810633977 0.0004827224048835584" pbc="T T T"
Si       1.45604237       3.57140190       2.29356553
Si       2.10055907       1.65152883       1.03389873
Si      -0.62747730       3.56993407       3.54419870
Si       2.46726615       1.32476922       5.13848504
Si       0.59428996       0.41667984       4.03985891
Si       0.06086585       0.62340638       1.61353883
6
Lattice="3.7434271451899805 -0.2738237407133394 0.4091268028154648 -1.521257320077144 5.459292124638211 0.08282389416698756 0.3020067073842067 -0.2838497031997197 6.493395683068839" Properties=species:S:1:pos:R:3 unique_starting_index=148 config_type=initial n_minim_iter=11 stress="-0.0011245179834541502 -0.0005435502779143078 0.00039186982846947676 -0.0005435502779143078 0.0005225552333355494 0.00013326255328073458 0.00039186982846947676 0.00013326255328073458 -0.0006901114857144526" pbc="T T T"
Si       1.47338533       3.58818900       2.31047013
Si       2.08079544       1.65281655       1.04244388
Si      -0.61137738       3.59921817       3.54986699
Si       2.46740085       1.35172045       5.14438434
Si       0.60451193       0.42118612       4.03311586
Si       0.06060517       0.63550599       1.60904860
6
Lattice="3.743720806621038 -0.25982057026226346 0.4057815692504326 -1.5025144233914771 5.450042362138812 0.09170760686738783 0.2942360496927728 -0.2741623906524474 6.505914126856731" Properties=species:S:1:pos:R:3 unique_starting_index=148 config_type=initial n_minim_iter=12 stress="-0.0007979320155340423 0.0011093553378418541 0.0007798970091990868 0.0011093553378418541 -0.0010213606596871786 0.00046865200049328115 0.0007798970091990868 0.00046865200049328115 -0.0002879086298997832" pbc="T T T"
Si       1.49769706       3.59403163       2.32374933
Si       2.06086625       1.65504754       1.04250665
Si      -0.59273573       3.61044856       3.56300388
Si       2.47548648       1.37094461       5.15589203
Si       0.60346063       0.41795253       4.03427828
Si       0.05476854       0.63650190       1.61442166
6
Lattice="3.7642238659712914 -0.2693001317241514 0.37488705618616175 -1.5244677470872214 5.458674798543431 0.09814971953979928 0.24167404532180517 -0.2819893167510321 6.502485380614404" Properties=species:S:1:pos:R:3 unique_starting_index=148 config_type=initial n_minim_iter=13 stress="0.003143300729640183 -0.0002771773720442693 -0.002021454568415068 -0.0002771773720442693 0.0022781401745547206 0.0012057946626135765 -0.002021454568415068 0.0012057946626135765 -0.00018542536552598702" pbc="T T T"
Si       1.49728976       3.57504156       2.32265693
Si       2.02119933       1.64024528       1.01051347
Si      -0.60945366       3.60598826       3.57009810
Si       2.46680963       1.37124372       5.11680361
Si       0.57206517       0.43034095       4.02513895
Si       0.01538136       0.63974752       1.62199007
6
Lattice="3.7631882586306076 -0.26818886165497013 0.37962279039344465 -1.521544744430434 5.451916865951203 0.08212645731424224 0.2477350787824123 -0.29914684207307624 6.513181575496804" Properties=species:S:1:pos:R:3 unique_starting_index=148 config_type=initial n_minim_iter=14 stress="0.0017563116607491314 2.562066038877536e-05 -0.00038766454807670616 2.562066038877536e-05 0.001049645900628485 2.648738740674537e-05 -0.00038766454807670616 2.648738740674537e-05 0.0010543626691968126" pbc="T T T"
Si       1.51190734       3.56182277       2.32396779
Si       1.99898186       1.62956336       1.00511202
Si      -0.58537254       3.59075017       3.56823496
Si       2.48117927       1.36093288       5.11646590
Si       0.57984105       0.42806338       4.03079855
Si      -0.00349793       0.63478853       1.62398701
6
Lattice="3.7610774433605654 -0.26709987279940395 0.3809669689653194 -1.5187257927275981 5.446343362945892 0.072862661054083 0.24979378744829803 -0.3092759036658548 6.506208432706376" Properties=species:S:1:pos:R:3 unique_starting_index=148 config_type=initial n_minim_iter=15 stress="-0.0002115549674093004 0.0001350466720835154 0.0001956978209715271 0.0001350466720835154 -0.0005446272594505428 -0.00048588240174717387 0.0001956978209715271 -0.00048588240174717387 1.7401857812014358e-05" pbc="T T T"
Si       1.52427184       3.55188232       2.32277862
Si       1.97681179       1.61850032       0.99718560
Si      -0.56133161       3.58321649       3.56137397
Si       2.48847557       1.35676458       5.10559722
Si       0.58943971       0.42795635       4.02430636
Si      -0.02784604       0.63149577       1.62132785
6
Lattice="3.7582618901271556 -0.26771750740095424 0.38110203558940337 -1.5183042398850504 5.444803077057123 0.06931989940803922 0.24970383955762052 -0.31345895083853714 6.506434218954933" Properties=species:S:1:pos:R:3 unique_starting_index=148 config_type=initial n_minim_iter=16 stress="-0.0011972979027339895 0.0001349504763189315 0.0005559446889740687 0.0001349504763189315 -0.0008808215009436069 -0.00047623617625155686 0.0005559446889740687 -0.00047623617625155686 -0.0005456212849749001" pbc="T T T"
Si       1.52864979       3.54246315       2.32695589
Si       1.95891188       1.60952645       0.98884111
Si      -0.54153459       3.58450392       3.56382602
Si       2.49117821       1.35801333       5.10351465
Si       0.59851113       0.42927960       4.01962583
Si      -0.05178530       0.63036310       1.62251184
6
Lattice="3.7567889956780967 -0.26917920951202484 0.37839444093718144 -1.520020740111246 5.4451070526182175 0.07169765085176072 0.2446241473173148 -0.31206298820128753 6.513035109851417" Properties=species:S:1:pos:R:3 unique_starting_index=148 config_type=initial n_minim_iter=17 stress="-0.0007423374238490476 0.00013943385571950104 0.00017390968013158948 0.00013943385571950104 -0.0005655067027042853 -0.00022438564712265577 0.00017390968013158948 -0.00022438564712265577 -0.0005000563197164677" pbc="T T T"
Si       1.52462108       3.53672304       2.33173986
Si       1.95298369       1.60644567       0.98344087
Si      -0.53745529       3.58980786       3.57227363
Si       2.48751063       1.36134482       5.10866220
Si       0.60054283       0.43073562       4.01876588
Si      -0.06464399       0.62990473       1.62631453
6
Lattice="3.756368480410527 -0.270828017968866 0.3778990783022739 -1.5223418619300546 5.446666312281011 0.0741847429344194 0.24356228963779927 -0.309536126128838 6.519417089519575" Properties=species:S:1:pos:R:3 unique_starting_index=148 config_type=initial n_minim_iter=18 stress="-8.803964309920907e-05 2.4825481133144976e-05 -1.368501093322203e-05 2.4825481133144976e-05 -0.00010038872230362724 -1.9182440802213213e-05 -1.368501093322203e-05 -1.9182440802213213e-05 -0.0001991004312672353" pbc="T T T"
Si       1.52010177       3.53472280       2.33533634
Si       1.95436199       1.60678731       0.98317247
Si      -0.54065727       3.59420528       3.57855788
Si       2.48561684       1.36333343       5.11588726
Si       0.60121229       0.43222716       4.02018339
Si      -0.06613567       0.62983758       1.62889007
6
Lattice="3.7552065948677185 -0.2730685890168452 0.3783826796813221 -1.5252509713973297 5.449118655132982 0.07777330626239264 0.2438529905687262 -0.30540268184890085 6.5318750303079245" Properties=species:S:1:pos:R:3 unique_starting_index=148 config_type=initial n_minim_iter=19 stress="0.0008830752599265167 -8.538109602997212e-05 -0.0003998720665637462 -8.538109602997212e-05 0.0006786055044978867 0.00030171265022182743 -0.0003998720665637462 0.00030171265022182743 0.0004121405147873431" pbc="T T T"
Si       1.51402225       3.53133702       2.34195418
Si       1.95821623       1.60829482       0.98562114
Si      -0.54884128       3.60102791       3.58865791
Si       2.48452286       1.36613601       5.13123416
Si       0.60369616       0.43696284       4.02341979
Si      -0.06583736       0.62826688       1.63229417
6
Lattice="3.7541459303331877 -0.2732757888634599 0.38615882120651934 -1.5246187585967361 5.446209025269838 0.06971868673727707 0.2567030350196297 -0.31137814174038053 6.535796805986876" Properties=species:S:1:pos:R:3 unique_starting_index=148 config_type=initial n_minim_iter=20 stress="0.00018567477932845868 -0.00016793116395628365 0.00021067027596458613 -0.00016793116395628365 0.00017736390474147503 2.4808292598793387e-05 0.00021067027596458613 2.4808292598793387e-05 2.895261713403359e-05" pbc="T T T"
Si       1.52228653       3.52130367       2.34621866
Si       1.95327189       1.60383706       0.99145469
Si      -0.54757201       3.59744842       3.58470731
Si       2.49938520       1.36132715       5.14086591
Si       0.61769873       0.44479383       4.02094995
Si      -0.06761076       0.62088779       1.62868183
6
Lattice="3.7514584134660844 -0.2711820906125205 0.38391573463163386 -1.5206712658247685 5.442874037939508 0.06870058641374684 0.251896471743696 -0.31360602919346914 6.540759754253177" Properties=species:S:1:pos:R:3 unique_starting_index=148 config_type=initial n_minim_iter=21 stress="-0.0005106663159321953 0.0001585061241044238 -0.0002152300237012315 0.0001585061241044238 -0.00028223138405216683 7.808744946566228e-05 -0.0002152300237012315 7.808744946566228e-05 6.646873151566091e-05" pbc="T T T"
Si       1.52290401       3.51804794       2.34853192
Si       1.94703601       1.60066319       0.98912726
Si      -0.54459581       3.59635195       3.58748078
Si       2.49854506       1.36202942       5.14285350
Si       0.61887189       0.44716330       4.02020784
Si      -0.07475098       0.61689625       1.62967479
