24
Lattice="5.77647179813364 -1.1854915800650867 0.9198425964319312 1.5513555524367473 8.801526487526015 -0.8352462136709139 2.425589256167789 1.931902421956525 8.77475841910323" Properties=species:S:1:pos:R:3 unique_starting_index=94 config_type=initial n_minim_iter=1 energy=-3908.1840840106515 free_energy=-3908.1840840106515 pbc="T T T"
Si       8.03794118       7.10897673       8.41822462
Si       0.63205187       2.08430344       1.71383131
Si       1.77292249       7.44280487      -0.39098037
Si       6.39587108       8.99360965       5.84390967
Si       4.76211814       2.36863830       1.63108059
Si       5.07148142       4.00362441       9.19912941
Si       3.69043411       1.11670217       3.48083456
Si       2.88271205      -0.84817080       2.39883773
Si       7.86141770       0.81343411       5.90856329
Si       8.54533365       7.72153865       6.18198684
Si       4.87352161       5.92943844       7.61270528
Si       5.80438912       1.39647019       4.87788003
Si       4.28912348       6.28948330       3.24031297
Si       2.48054288       5.72036158       7.26980559
Si       5.20720478       3.59395564       5.20481282
Si       6.65245094       4.98120262       6.37982570
Si       4.08093644       2.07882009       8.04244639
Si       3.29550320       5.74991040       0.21775717
Si       7.88050411       4.52807147       3.24839586
Si       3.19078194       3.50569583       6.40274906
Si       7.13908698       6.57122496       4.61198884
Si       0.54725884      -0.21114924       2.42025624
Si       4.73012124       7.27804515       5.41663900
Si       5.47405401       4.25726734       2.95497564
24
Lattice="5.771211072639263 -1.1830967868968392 0.9219715329671864 1.5534938019103957 8.804390933630971 -0.8328733809903663 2.428095226859145 1.935020379603356 8.774505870221848" Properties=species:S:1:pos:R:3 unique_starting_index=94 config_type=initial n_minim_iter=2 stress="-0.0007487764458909039 0.000266276931687303 0.0002601169014473285 0.000266276931687303 -0.00012049544904112219 0.00019764974491344185 0.0002601169014473285 0.00019764974491344185 -0.00043414277977458853" pbc="T T T"
Si       8.03760912       7.11567101       8.42100361
Si       0.63341382       2.08520353       1.71392504
Si       1.77458687       7.44554180      -0.38867674
Si       6.39642735       8.99961504       5.84689714
Si       4.76001530       2.37159101       1.63335359
Si       5.07258703       4.00856890       9.19998495
Si       3.68951180       1.11915146       3.48221478
Si       2.88061355      -0.84656590       2.39959549
Si       7.85766744       0.81886220       5.91092188
Si       8.54344989       7.72803921       6.18649747
Si       4.87547402       5.93458213       7.61444282
Si       5.80167132       1.40027278       4.88027051
Si       4.28938865       6.29359325       3.24283857
Si       2.48399556       5.72462298       7.27032321
Si       5.20661705       3.59823635       5.20609146
Si       6.65130976       4.98677778       6.38214470
Si       4.08164600       2.08274660       8.04294528
Si       3.29513203       5.75340323       0.21979141
Si       7.87686506       4.53311804       3.25228452
Si       3.19204749       3.50862496       6.40307996
Si       7.13704920       6.57637210       4.61561478
Si       0.54791456      -0.21034381       2.42004367
Si       4.73189105       7.28275270       5.41920806
Si       5.47229083       4.26142749       2.95816519
24
Lattice="5.772659728351982 -1.18346902228382 0.9232510837742902 1.5545891519260806 8.810162981191253 -0.8345933972190531 2.4296866196819393 1.9351021914775997 8.779862027950186" Properties=species:S:1:pos:R:3 unique_starting_index=94 config_type=initial n_minim_iter=3 stress="-5.397020441081179e-05 0.0003667859656566217 0.0002461691453568049 0.0003667859656566217 0.0007601157691740755 0.00012938183839184754 0.0002461691453568049 0.00012938183839184754 0.00047843078801626" pbc="T T T"
Si       8.04112253       7.11917950       8.42524935
Si       0.63433904       2.08587622       1.71437642
Si       1.77582458       7.45055243      -0.38963224
Si       6.39889072       9.00452930       5.84927764
Si       4.76223473       2.37319150       1.63462026
Si       5.07487183       4.01015101       9.20492800
Si       3.69148365       1.11944869       3.48489899
Si       2.88122159      -0.84695348       2.40166004
Si       7.86081431       0.82038479       5.91507468
Si       8.54623819       7.73203427       6.19090238
Si       4.87852742       5.93776880       7.61877942
Si       5.80322849       1.40096853       4.88450354
Si       4.29114483       6.29741243       3.24458320
Si       2.48576650       5.72796689       7.27380426
Si       5.20913126       3.60037374       5.20818091
Si       6.65372678       4.98979465       6.38546997
Si       4.08350880       2.08348883       8.04776694
Si       3.29637070       5.75802863       0.21870407
Si       7.87951487       4.53580110       3.25482423
Si       3.19330360       3.50924069       6.40601135
Si       7.13888159       6.57949000       4.61852292
Si       0.54852040      -0.21044268       2.42167487
Si       4.73494418       7.28645712       5.42230663
Si       5.47422417       4.26426236       2.96084795
24
Lattice="5.774269170286426 -1.1858935777275839 0.9219623913993669 1.5508379239683163 8.804110256394138 -0.838151819758338 2.4269334626015873 1.9293700863348053 8.776622395539409" Properties=species:S:1:pos:R:3 unique_starting_index=94 config_type=initial n_minim_iter=4 stress="-0.00010483983054591212 7.927907556522066e-06 -4.908185241155993e-05 7.927907556522066e-06 6.218491979576746e-05 -0.00025655062612865237 -4.908185241155993e-05 -0.00025655062612865237 1.3071416557273939e-05" pbc="T T T"
Si       8.03728584       7.10703643       8.41783000
Si       0.63354361       2.08298935       1.71265161
Si       1.77287256       7.44531087      -0.39247590
Si       6.39363894       8.99293858       5.84233684
Si       4.76257749       2.36868594       1.63238229
Si       5.07134606       4.00167953       9.19925744
Si       3.69166433       1.11530789       3.48322440
Si       2.88129598      -0.84838184       2.40101550
Si       7.86124423       0.81534075       5.91131094
Si       8.54181974       7.71978194       6.18562151
Si       4.87543578       5.92904712       7.61379470
Si       5.80187084       1.39547034       4.88256799
Si       4.28787447       6.29012636       3.24079044
Si       2.48154077       5.72125424       7.26891414
Si       5.20769242       3.59386761       5.20294201
Si       6.65065303       4.98129230       6.37979307
Si       4.08110390       2.07755673       8.04388903
Si       3.29402578       5.75367985       0.21472763
Si       7.87812058       4.52736125       3.25099098
Si       3.18997520       3.50187502       6.40144988
Si       7.13471112       6.56884451       4.61368420
Si       0.54842173      -0.21100885       2.42117021
Si       4.73193850       7.27684354       5.41771134
Si       5.47239879       4.25790264       2.95847825
24
Lattice="5.77581278532206 -1.1858939484056463 0.9216962087836159 1.5503808609194882 8.802142017443067 -0.8349766652652438 2.427607543601059 1.9319133641338793 8.777197489929675" Properties=species:S:1:pos:R:3 unique_starting_index=94 config_type=initial n_minim_iter=5 stress="0.00010872590060063263 -2.861461092810314e-05 4.698396280995474e-06 -2.861461092810314e-05 3.7423057445409875e-06 3.7016974559095336e-05 4.698396280995474e-06 3.7016974559095336e-05 -2.462462677814818e-05" pbc="T T T"
Si       8.03886495       7.10794078       8.42030381
Si       0.63364715       2.08306901       1.71335113
Si       1.77261514       7.44378142      -0.38975317
Si       6.39441171       8.99276307       5.84549654
Si       4.76374422       2.36839674       1.63338019
Si       5.07250560       4.00380138       9.20045575
Si       3.69274682       1.11595419       3.48375140
Si       2.88209306      -0.84761181       2.40086013
Si       7.86327982       0.81668421       5.91164854
Si       8.54322724       7.71979705       6.18859823
Si       4.87641555       5.93031348       7.61593698
Si       5.80321774       1.39640655       4.88330401
Si       4.28837193       6.28983189       3.24314278
Si       2.48184924       5.72276250       7.27074158
Si       5.20883170       3.59463589       5.20407561
Si       6.65194895       4.98209271       6.38150998
Si       4.08208715       2.07973523       8.04448721
Si       3.29428921       5.75266167       0.21670800
Si       7.87972747       4.52689051       3.25287298
Si       3.19058571       3.50312840       6.40252044
Si       7.13577432       6.56847416       4.61614845
Si       0.54868286      -0.21007399       2.42116977
Si       4.73273227       7.27691358       5.42042512
Si       5.47339637       4.25772577       2.96027892
24
Lattice="5.773220831940563 -1.1853644798063239 0.9211503050501597 1.5499985837937786 8.799459575901848 -0.8348426686089992 2.425158718447743 1.932247383562636 8.782075760068535" Properties=species:S:1:pos:R:3 unique_starting_index=94 config_type=initial n_minim_iter=6 stress="-0.00021498285946612374 1.8821687074516085e-05 -0.000146596208368322 1.8821687074516085e-05 -0.0001786767646902983 0.00010600643319585842 -0.000146596208368322 0.00010600643319585842 0.00030244446267538625" pbc="T T T"
Si       8.03431818       7.10637671       8.42445240
Si       0.63348564       2.08232607       1.71469393
Si       1.77179222       7.44198306      -0.38945089
Si       6.39021902       8.99032608       5.84859529
Si       4.76229803       2.36787994       1.63400755
Si       5.06930536       4.00379156       9.20452762
Si       3.69149617       1.11581639       3.48580582
Si       2.88021483      -0.84686009       2.40233705
Si       7.85859228       0.81683335       5.91320329
Si       8.53811752       7.71852059       6.19134342
Si       4.87352846       5.92962987       7.62045481
Si       5.79995211       1.39640599       4.88561259
Si       4.28573532       6.28862381       3.24532323
Si       2.47991130       5.72246398       7.27443882
Si       5.20570309       3.59419530       5.20642340
Si       6.64787080       4.98109375       6.38426315
Si       4.07876166       2.08016548       8.04807175
Si       3.29310051       5.75194749       0.21631137
Si       7.87605344       4.52537773       3.25435680
Si       3.18853316       3.50301682       6.40565752
Si       7.13142319       6.56650267       4.61804714
Si       0.54812942      -0.20952090       2.42327041
Si       4.73041504       7.27457560       5.42395086
Si       5.47057192       4.25695005       2.96186313
24
Lattice="5.77450322733737 -1.1863906693971251 0.9242353382842085 1.5492911936912215 8.802345030003732 -0.8371391978861588 2.4299470474313747 1.9292400256187208 8.778785678502215" Properties=species:S:1:pos:R:3 unique_starting_index=94 config_type=initial n_minim_iter=7 stress="-0.000196822754281652 -1.4449077374610113e-05 0.00013938723101782348 -1.4449077374610113e-05 -2.779681407001975e-06 2.638730034246575e-05 0.00013938723101782348 2.638730034246575e-05 -8.264476621614406e-05" pbc="T T T"
Si       8.03971525       7.10361398       8.42189932
Si       0.63547729       2.08146848       1.71434848
Si       1.77056692       7.44581020      -0.39095884
Si       6.39161813       8.98919007       5.84559514
Si       4.76594703       2.36755720       1.63549970
Si       5.07583028       4.00166939       9.19924303
Si       3.69628458       1.11403018       3.48743981
Si       2.88118755      -0.84758644       2.40516225
Si       7.86139507       0.81314968       5.91243977
Si       8.54018690       7.71887047       6.18939126
Si       4.87883142       5.92886217       7.61834123
Si       5.80306210       1.39401314       4.88665273
Si       4.28646773       6.28990021       3.24490865
Si       2.48440262       5.72308348       7.26836558
Si       5.20837775       3.59303714       5.20509957
Si       6.65090832       4.97893731       6.38208927
Si       4.08243136       2.07787220       8.04402922
Si       3.29384796       5.75613240       0.21422354
Si       7.87888910       4.52317202       3.25652503
Si       3.19301486       3.50229925       6.40200045
Si       7.13245716       6.56467548       4.61631856
Si       0.54957971      -0.21003580       2.42500753
Si       4.73467841       7.27194549       5.42247209
Si       5.47227288       4.25708737       2.96272199
24
Lattice="5.775821767376642 -1.1840768254902283 0.9215734548618466 1.553670667892166 8.802378244099344 -0.8378179262781735 2.427852520093228 1.929851123968565 8.77567036645451" Properties=species:S:1:pos:R:3 unique_starting_index=94 config_type=initial n_minim_iter=8 stress="6.782225121699618e-05 0.0001842098706028063 -9.297435810967438e-05 0.0001842098706028063 -3.620316595203865e-05 7.305385683485236e-07 -9.297435810967438e-05 7.305385683485236e-07 -0.0001038580954132631" pbc="T T T"
Si       8.04199965       7.10608140       8.41639532
Si       0.63605671       2.08159912       1.71379783
Si       1.77407211       7.44646105      -0.39169071
Si       6.39481544       8.99089593       5.84142652
Si       4.76815877       2.36908728       1.63298249
Si       5.07580993       4.00321102       9.19471848
Si       3.69702217       1.11530325       3.48513167
Si       2.88082896      -0.84645996       2.40380476
Si       7.86200073       0.81562476       5.90753920
Si       8.54341754       7.72175834       6.18368194
Si       4.87971773       5.93023147       7.61456725
Si       5.80370380       1.39601661       4.88284631
Si       4.28896844       6.29114152       3.24232527
Si       2.48464303       5.72365866       7.26529329
Si       5.20939742       3.59444623       5.20172930
Si       6.65265976       4.98083685       6.37767720
Si       4.08108279       2.07917173       8.04004982
Si       3.29742518       5.75750187       0.21267825
Si       7.88233732       4.52552527       3.25227455
Si       3.19278627       3.50348471       6.39892645
Si       7.13572337       6.56686814       4.61181652
Si       0.54860884      -0.20997610       2.42447790
Si       4.73677787       7.27280069       5.41912593
Si       5.47471482       4.25897628       2.95941855
24
Lattice="5.7759257878584815 -1.1864263770496837 0.9217462823449363 1.550036394158084 8.802188191204932 -0.8377033929952207 2.4269690589776607 1.929244215753813 8.77742450316642" Properties=species:S:1:pos:R:3 unique_starting_index=94 config_type=initial n_minim_iter=9 stress="0.00011327707959314277 -5.9200072552132565e-05 -0.00011450676841617705 -5.9200072552132565e-05 7.873418592214889e-05 -9.275066354916126e-06 -0.00011450676841617705 -9.275066354916126e-06 5.105202496418713e-05" pbc="T T T"
Si       8.03879075       7.10368153       8.41835877
Si       0.63555843       2.08166917       1.71421876
Si       1.77070020       7.44666687      -0.39147337
Si       6.39073027       8.98904273       5.84302022
Si       4.76689302       2.36716964       1.63319794
Si       5.07437311       4.00160632       9.19680618
Si       3.69662937       1.11403821       3.48578854
Si       2.88093644      -0.84764891       2.40461486
Si       7.86126793       0.81233941       5.90885173
Si       8.53948871       7.71905809       6.18466634
Si       4.87694796       5.92880955       7.61643042
Si       5.80273714       1.39387083       4.88364147
Si       4.28604827       6.28980159       3.24323039
Si       2.48242573       5.72318766       7.26690388
Si       5.20754463       3.59233777       5.20311239
Si       6.65040469       4.97844275       6.37919641
Si       4.07976163       2.07784005       8.04155388
Si       3.29514082       5.75684004       0.21319385
Si       7.88012446       4.52241183       3.25289561
Si       3.19093639       3.50289974       6.40005157
Si       7.13283573       6.56455955       4.61276445
Si       0.54859866      -0.21032575       2.42499259
Si       4.73316499       7.27124001       5.42045817
Si       5.47272302       4.25720018       2.95978678
24
Lattice="5.77685543496812 -1.186332253495152 0.924788108260134 1.5492471326561124 8.797910757276425 -0.8385532606973255 2.430838013936663 1.9269812143327887 8.781877861599256" Properties=species:S:1:pos:R:3 unique_starting_index=94 config_type=initial n_minim_iter=10 stress="0.0002041092832038077 -6.59322114068921e-05 0.00010044830649099296 -6.59322114068921e-05 -0.00015667636003497044 -8.981454555419026e-05 0.00010044830649099296 -8.981454555419026e-05 0.0002413910377303176" pbc="T T T"
Si       8.04285927       7.09880423       8.42430296
Si       0.63713243       2.08050117       1.71489608
Si       1.76976680       7.44403547      -0.39165472
Si       6.39276251       8.98343062       5.84718408
Si       4.76815983       2.36514372       1.63534683
Si       5.07928929       3.99799309       9.20232125
Si       3.69914266       1.11283201       3.48877045
Si       2.88203222      -0.84773874       2.40779697
Si       7.86469831       0.81037101       5.91465419
Si       8.54149807       7.71396684       6.18940170
Si       4.88038704       5.92467951       7.62136974
Si       5.80495456       1.39208676       4.88795013
Si       4.28706413       6.28591417       3.24591091
Si       2.48578206       5.71958159       7.27012041
Si       5.20993421       3.58896535       5.20707175
Si       6.65346986       4.97454333       6.38410047
Si       4.08287237       2.07559780       8.04599311
Si       3.29552204       5.75490157       0.21417296
Si       7.88203406       4.51856235       3.25693025
Si       3.19309315       3.50044338       6.40292375
Si       7.13485256       6.56000070       4.61668621
Si       0.54966443      -0.21073076       2.42646807
Si       4.73491356       7.26607088       5.42407680
Si       5.47419344       4.25464065       2.96256162
24
Lattice="5.775065978617556 -1.187355220168646 0.9239612212728825 1.5477240505001306 8.800464652120029 -0.8377525097167835 2.4289151719510045 1.92814759812525 8.78070101810211" Properties=species:S:1:pos:R:3 unique_starting_index=94 config_type=initial n_minim_iter=11 stress="-2.0268480731455802e-05 -0.00014567156272852794 5.036368715116566e-05 -0.00014567156272852794 4.3061079274004644e-05 -7.220773844269377e-06 5.036368715116566e-05 -7.220773844269377e-06 8.196293387958331e-05" pbc="T T T"
Si       8.03892685       7.10114396       8.42276919
Si       0.63799419       2.08136577       1.71476664
Si       1.76761514       7.44780646      -0.39072213
Si       6.38811304       8.98586712       5.84676219
Si       4.76692733       2.36488257       1.63454432
Si       5.07743259       3.99934244       9.20079080
Si       3.69890612       1.11307586       3.48830289
Si       2.88054037      -0.84809785       2.40848239
Si       7.86189529       0.80999449       5.91305726
Si       8.53561271       7.71588984       6.18792966
Si       4.87769145       5.92691022       7.62125060
Si       5.80202567       1.39190082       4.88697637
Si       4.28392788       6.28757263       3.24628973
Si       2.48409528       5.72251637       7.26915706
Si       5.20727135       3.58934037       5.20595620
Si       6.65008048       4.97560531       6.38299072
Si       4.07952885       2.07689577       8.04396601
Si       3.29427223       5.75834045       0.21450703
Si       7.87885510       4.51808062       3.25610223
Si       3.18999417       3.50206658       6.40092903
Si       7.13078327       6.56094441       4.61573951
Si       0.54927269      -0.21073459       2.42652699
Si       4.73132061       7.26722606       5.42415600
Si       5.47164422       4.25593661       2.96193557
24
Lattice="5.774772588028718 -1.1862793223564188 0.9232459248326141 1.5494467615581602 8.800671629427509 -0.8378546830360335 2.4283257295802008 1.928565712217459 8.779603981534184" Properties=species:S:1:pos:R:3 unique_starting_index=94 config_type=initial n_minim_iter=12 stress="-3.843378301224395e-05 -4.520679214783841e-05 -3.881021635025624e-06 -4.520679214783841e-05 4.859585173500044e-05 1.371552284070846e-05 -3.881021635025624e-06 1.371552284070846e-05 -9.498214314657092e-06" pbc="T T T"
Si       8.03962202       7.10284884       8.42083207
Si       0.63933468       2.08158781       1.71454089
Si       1.76854047       7.44913627      -0.39076570
Si       6.38849077       8.98681582       5.84559645
Si       4.76780592       2.36533055       1.63361945
Si       5.07805862       3.99993652       9.19920420
Si       3.69968215       1.11381767       3.48769342
Si       2.87986910      -0.84757207       2.40893940
Si       7.86165977       0.81115596       5.91143177
Si       8.53535023       7.71731891       6.18605968
Si       4.87839772       5.92789508       7.62064381
Si       5.80163920       1.39246417       4.88590504
Si       4.28429862       6.28808480       3.24601958
Si       2.48478285       5.72337697       7.26803337
Si       5.20738505       3.58998816       5.20467829
Si       6.65030819       4.97656780       6.38162855
Si       4.07835204       2.07805585       8.04216806
Si       3.29569357       5.76037954       0.21422966
Si       7.87951566       4.51860657       3.25484821
Si       3.18931417       3.50286103       6.39925793
Si       7.13114659       6.56165386       4.61429646
Si       0.54894184      -0.21056636       2.42657248
Si       4.73153973       7.26732688       5.42348213
Si       5.47218348       4.25699430       2.96091857
24
Lattice="5.774711162716617 -1.1851458335015685 0.9230715937624818 1.5510849976387013 8.799887245262864 -0.8382529645415498 2.4284219702280634 1.928406941218896 8.779350602521623" Properties=species:S:1:pos:R:3 unique_starting_index=94 config_type=initial n_minim_iter=13 stress="-3.5026039615000455e-05 5.187092900095161e-05 -2.325254387214555e-05 5.187092900095161e-05 1.402412746277675e-05 1.985467367665519e-05 -2.325254387214555e-05 1.985467367665519e-05 -6.561683185591685e-05" pbc="T T T"
Si       8.04108537       7.10359389       8.41984660
Si       0.64107836       2.08161116       1.71442437
Si       1.76936317       7.44966525      -0.39116638
Si       6.38924121       8.98647355       5.84505962
Si       4.76904171       2.36533327       1.63301344
Si       5.07955954       3.99939816       9.19865756
Si       3.70077465       1.11438226       3.48750334
Si       2.87946669      -0.84714924       2.40998812
Si       7.86205320       0.81179430       5.91072211
Si       8.53564183       7.71750255       6.18508158
Si       4.87995998       5.92789155       7.62103834
Si       5.80188141       1.39230406       4.88557190
Si       4.28490871       6.28749442       3.24623785
Si       2.48608551       5.72328512       7.26763313
Si       5.20799504       3.59014164       5.20400728
Si       6.65110513       4.97668360       6.38115817
Si       4.07771331       2.07890381       8.04121140
Si       3.29720040       5.76198667       0.21404865
Si       7.88055821       4.51835108       3.25416084
Si       3.18910740       3.50304826       6.39825149
Si       7.13190780       6.56126114       4.61345848
Si       0.54875705      -0.21028542       2.42687413
Si       4.73196213       7.26643387       5.42335310
Si       5.47312391       4.25719976       2.96027192
24
Lattice="5.774841110239404 -1.1838564412448185 0.9233267380456966 1.5527366412852681 8.797483120403376 -0.8393984171574369 2.42891371627167 1.9271835781089075 8.78017048732554" Properties=species:S:1:pos:R:3 unique_starting_index=94 config_type=initial n_minim_iter=14 stress="-4.631615517690018e-06 0.00014148093500826662 -2.9867590176314402e-05 0.00014148093500826662 -4.288617349185623e-05 1.4081645070789686e-05 -2.9867590176314402e-05 1.4081645070789686e-05 -8.929056602410188e-05" pbc="T T T"
Si       8.04314770       7.10323519       8.41935426
Si       0.64438392       2.08157238       1.71439280
Si       1.76978801       7.44960062      -0.39260220
Si       6.38950042       8.98392537       5.84490421
Si       4.77122854       2.36424639       1.63226437
Si       5.08238031       3.99631973       9.19922391
Si       3.70251685       1.11486759       3.48753522
Si       2.87909829      -0.84709851       2.41255474
Si       7.86294820       0.81117290       5.91052154
Si       8.53564291       7.71555266       6.18454008
Si       4.88283518       5.92628953       7.62327679
Si       5.80275694       1.39026814       4.88586061
Si       4.28529581       6.28459368       3.24728362
Si       2.48820257       5.72182011       7.26819070
Si       5.20894110       3.58943956       5.20357401
Si       6.65222477       4.97530276       6.38158261
Si       4.07665376       2.07975985       8.04077705
Si       3.29908172       5.76410955       0.21379791
Si       7.88190407       4.51629130       3.25345902
Si       3.18881024       3.50242160       6.39759477
Si       7.13257135       6.55858821       4.61265464
Si       0.54850236      -0.20955175       2.42769696
Si       4.73157921       7.26362909       5.42382874
Si       5.47461320       4.25569216       2.95944697
24
Lattice="5.775051058764688 -1.1857287045468963 0.9240470137993796 1.549790270332235 8.796877810671464 -0.8398904999395436 2.4289425624773533 1.925900348585623 8.781827920380188" Properties=species:S:1:pos:R:3 unique_starting_index=94 config_type=initial n_minim_iter=15 stress="7.512367532238126e-06 -4.025363397351693e-05 1.2797666111012175e-05 -4.025363397351693e-05 9.024942027872654e-07 -6.82202394774607e-06 1.2797666111012175e-05 -6.82202394774607e-06 3.463939169716834e-05" pbc="T T T"
Si       8.04075826       7.10063212       8.42118079
Si       0.64380652       2.08167450       1.71462702
Si       1.76769503       7.44842587      -0.39357973
Si       6.38675738       8.98159799       5.84591258
Si       4.77051212       2.36246639       1.63286259
Si       5.08144670       3.99344114       9.20126635
Si       3.70144002       1.11383436       3.48786599
Si       2.87958848      -0.84866542       2.41305958
Si       7.86256305       0.80801849       5.91200844
Si       8.53404140       7.71237201       6.18631084
Si       4.88172266       5.92412094       7.62518971
Si       5.80281058       1.38779483       4.88704557
Si       4.28350978       6.28222074       3.24800155
Si       2.48694525       5.72034888       7.26996380
Si       5.20801867       3.58776793       5.20461872
Si       6.65086226       4.97306718       6.38334090
Si       4.07656494       2.07837378       8.04267264
Si       3.29688049       5.76266451       0.21381988
Si       7.88013044       4.51415971       3.25421216
Si       3.18876446       3.50105465       6.39934275
Si       7.13049620       6.55595808       4.61361997
Si       0.54857643      -0.20932338       2.42783322
Si       4.72908663       7.26261188       5.42473171
Si       5.47358490       4.25274794       2.95999874
24
Lattice="5.774922368928498 -1.1858344500190303 0.9235705933104299 1.5499164474463585 8.797609346890333 -0.8405363336636728 2.4281889150947262 1.925500293621854 8.780938907132585" Properties=species:S:1:pos:R:3 unique_starting_index=94 config_type=initial n_minim_iter=16 stress="4.454367933671994e-06 -1.2405348342443558e-05 -1.8934363918841617e-06 -1.2405348342443558e-05 1.7632831742158332e-05 3.3154138190538314e-06 -1.8934363918841617e-06 3.3154138190538314e-06 9.61886609583406e-06" pbc="T T T"
Si       8.03942131       7.10121776       8.41942263
Si       0.64459799       2.08237027       1.71435754
Si       1.76802348       7.44992752      -0.39453491
Si       6.38544330       8.98201479       5.84423606
Si       4.77131996       2.36166756       1.63210635
Si       5.08150530       3.99257862       9.19977791
Si       3.70128172       1.11403985       3.48680127
Si       2.87892379      -0.84977060       2.41367930
Si       7.86189124       0.80738826       5.91074736
Si       8.53313540       7.71281466       6.18453444
Si       4.88157991       5.92402975       7.62520834
Si       5.80191639       1.38778944       4.88630963
Si       4.28297465       6.28142495       3.24768353
Si       2.48713724       5.72105623       7.26901224
Si       5.20767334       3.58697412       5.20325297
Si       6.65028749       4.97331467       6.38237979
Si       4.07530428       2.07827932       8.04115784
Si       3.29692590       5.76434463       0.21301070
Si       7.87969067       4.51452450       3.25291159
Si       3.18866426       3.50119720       6.39776576
Si       7.12941332       6.55566567       4.61179784
Si       0.54813389      -0.20907946       2.42752480
Si       4.72791466       7.26292820       5.42414415
Si       5.47374012       4.25206278       2.95903157
