18
Lattice="10.443375446283849 1.6768519032648096e-14 -2.5962246711589253e-29 -5.221687723141941 9.044228437740454 3.25824401212732e-29 9.242715130039934e-30 -8.319015707883578e-30 3.7458142157200345" Properties=species:S:1:pos:R:3 unique_starting_index=50 config_type=initial n_minim_iter=13 energy=-2933.716533398992 free_energy=-2933.716533398992 pbc="T T T"
Si       3.22243432       7.88705486       2.87497156
Si      -0.00251502       2.30999101       0.37776208
Si      -3.21991932       7.89141099       1.62636682
Si       1.99925339       1.15717357       1.00206445
Si       5.22420273       6.73423741       2.25066919
Si       8.44160703       1.15281744       3.49927393
Si       7.22300952       4.16766720       1.00035554
Si       5.21948863       0.70508508       2.24896028
Si       3.22256500       4.17147614       3.49756502
Si      -2.00132181       4.87656122       2.87326265
Si       0.00219908       8.33914334       0.37605317
Si       1.99912271       4.87275229       1.62465791
Si      -1.99856100       7.18579494       3.49916860
Si       2.00067374       7.18213555       1.00195912
Si      -0.00211276       3.72052636       2.25056386
Si       7.22024871       1.85843348       1.62626149
Si       3.22101397       1.86209288       2.87486623
Si       5.22380047       5.32370206       0.37765675
