10
Lattice="5.409141715256676 -0.27543088175795194 -0.3530277520005901 0.19044730077123662 6.850288383084183 -1.9520076171401235 -0.03722558482050137 1.3553247062080134 5.907754734742304" Properties=species:S:1:pos:R:3 unique_starting_index=87 config_type=initial n_minim_iter=1 energy=-1627.1097884557996 free_energy=-1627.1097884557996 pbc="T T T"
Si       3.03831222       6.42478080       2.72229190
Si       1.68661697       2.93857477       3.02994047
Si       3.92154121       3.34116840       0.49080541
Si       0.43606111       4.44931426      -0.32855132
Si       1.36830755       1.39693573       4.75307837
Si       1.60179998       2.28696837      -0.29995834
Si       5.47664130       6.21958825       2.96873103
Si       2.22928363       4.79367985       1.21512501
Si       3.21720349       4.42607655       4.03576077
Si       5.11536051       3.88121770       2.58853193
10
Lattice="5.401439696255617 -0.2678013068881416 -0.36068293136009255 0.20004535782025212 6.797618958127492 -1.95007261590223 -0.0452736734813323 1.342404365244817 5.892523828551682" Properties=species:S:1:pos:R:3 unique_starting_index=87 config_type=initial n_minim_iter=2 stress="-0.005086190884414855 0.0005260323378289528 -0.00046463590123997384 0.0005260323378289528 -0.00587389237689737 -0.00012027496373186344 -0.00046463590123997384 -0.00012027496373186344 -0.003452094406380226" pbc="T T T"
Si       3.03590751       6.37452132       2.71170769
Si       1.67750494       2.91416067       3.01450841
Si       3.92172433       3.31757035       0.48039366
Si       0.44399053       4.41326006      -0.32275488
Si       1.36268597       1.38038735       4.74160724
Si       1.60212788       2.27119520      -0.30337530
Si       5.46472976       6.17747902       2.94891801
Si       2.22543080       4.76493961       1.20029115
Si       3.21303195       4.39469086       4.01607831
Si       5.10826884       3.85538536       2.57507896
10
Lattice="5.465660266525783 -0.258982054278619 -0.37997413571129746 0.2179543470626653 6.765080404126736 -1.962726726984776 -0.0639091114835643 1.3309333688364882 5.91168136706151" Properties=species:S:1:pos:R:3 unique_starting_index=87 config_type=initial n_minim_iter=3 stress="0.003213706202711762 0.0020761446674849113 -0.001646586713389414 0.0020761446674849113 -0.0026233298587316142 4.4568477992350844e-05 -0.001646586713389414 4.4568477992350844e-05 0.004975298040699931" pbc="T T T"
Si       3.07183032       6.33770085       2.71943743
Si       1.67326670       2.89026005       3.00054854
Si       3.98415959       3.30084416       0.45985109
Si       0.46921623       4.38623467      -0.30094658
Si       1.37395012       1.35201224       4.76429175
Si       1.62546254       2.26351356      -0.31390511
Si       5.50636842       6.16108340       2.93144738
Si       2.24137394       4.77076672       1.16767873
Si       3.25353110       4.37866636       4.00541218
Si       5.16695749       3.84190509       2.57411136
10
Lattice="5.448878029584399 -0.2938667059462375 -0.3549993846834948 0.16819533028679698 6.814216817180879 -1.9394149588238159 -0.050087250295447576 1.3379894452745331 5.8321735742419305" Properties=species:S:1:pos:R:3 unique_starting_index=87 config_type=initial n_minim_iter=4 stress="-0.0020268291251161518 -0.002823800886370275 -0.0007761101657638127 -0.002823800886370275 0.00040827507956309 0.0007957124292289053 -0.0007761101657638127 0.0007957124292289053 -0.002304805995566947" pbc="T T T"
Si       3.03612769       6.36068671       2.69992840
Si       1.65163080       2.89249142       2.95641283
Si       3.95955782       3.29988562       0.46302866
Si       0.44388245       4.41376381      -0.28388130
Si       1.38414556       1.33994584       4.71225025
Si       1.60874800       2.27021356      -0.30781647
Si       5.44650914       6.17890395       2.90964766
Si       2.20751325       4.80965388       1.14114737
Si       3.23584741       4.38657352       3.95616454
Si       5.13634007       3.83778469       2.56360360
10
Lattice="5.452289500222048 -0.2661516180287714 -0.3327134053468697 0.19497704688617593 6.822681580813418 -1.9520740361151467 -0.020279075617281227 1.3244408801499956 5.820481249843988" Properties=species:S:1:pos:R:3 unique_starting_index=87 config_type=initial n_minim_iter=5 stress="-0.002155075210271324 0.0009594054163062369 0.0014121015504645169 0.0009594054163062369 0.0007592997933418573 -0.0002886848103115443 0.0014121015504645169 -0.0002886848103115443 -0.000673244562712997" pbc="T T T"
Si       3.08334708       6.37305962       2.69615874
Si       1.67622516       2.89110263       2.94919482
Si       3.98061045       3.32211229       0.47055300
Si       0.46374770       4.41922426      -0.29277080
Si       1.41445572       1.33328843       4.71032866
Si       1.62263799       2.27872697      -0.30780193
Si       5.48848763       6.20313920       2.91479413
Si       2.24765259       4.82715958       1.13002512
Si       3.27697517       4.38970449       3.95079110
Si       5.17137723       3.85969104       2.57431096
10
Lattice="5.549296627167459 -0.24906904405536098 -0.33334863664132686 0.21718916653548936 6.782365461413287 -1.967603898923722 -0.022214147929481984 1.2895652186938427 5.77331854686424" Properties=species:S:1:pos:R:3 unique_starting_index=87 config_type=initial n_minim_iter=6 stress="0.007031265228891266 0.003013264935900603 0.0025468562104031625 0.003013264935900603 -0.0017187161743358454 -0.0023002672658468744 0.0025468562104031625 -0.0023002672658468744 -0.0005039769298407119" pbc="T T T"
Si       3.15693286       6.32357100       2.66427753
Si       1.69822595       2.84206828       2.90357267
Si       4.05031184       3.31682738       0.45384588
Si       0.47362035       4.39496114      -0.31484722
Si       1.45039264       1.29621777       4.68226369
Si       1.66579975       2.25983487      -0.32151367
Si       5.56884473       6.16582314       2.87845607
Si       2.34587764       4.83129240       1.06689697
Si       3.33678873       4.32034955       3.89065192
Si       5.26894801       3.83936476       2.55078548
10
Lattice="5.52905662959519 -0.25315934944584384 -0.3738032504067011 0.22667690559642809 6.785638901662856 -1.9581835947938844 -0.06541562815361246 1.3043537740179059 5.790399437846982" Properties=species:S:1:pos:R:3 unique_starting_index=87 config_type=initial n_minim_iter=7 stress="0.00175076802964599 0.0053056670313394345 0.0013681487519097246 0.0053056670313394345 0.001746074940401308 -0.0012637833899390954 0.0013681487519097246 -0.0012637833899390954 0.002522367080384571" pbc="T T T"
Si       3.12876258       6.33674866       2.68703274
Si       1.64912534       2.82826157       2.88776415
Si       4.02232951       3.33070385       0.43649721
Si       0.46547275       4.40269597      -0.30293589
Si       1.41927248       1.28904452       4.70235743
Si       1.66795232       2.25469293      -0.33182706
Si       5.48408353       6.19013157       2.87469438
Si       2.37180824       4.88562733       1.01856469
Si       3.28690720       4.29953157       3.87248511
Si       5.22598751       3.85023440       2.54648533
10
Lattice="5.536592336599437 -0.3050940200892847 -0.40001157041575564 0.1694327810563259 6.74206072413295 -1.942505876916351 -0.10638458957501642 1.3121194236881255 5.795371772044306" Properties=species:S:1:pos:R:3 unique_starting_index=87 config_type=initial n_minim_iter=8 stress="-0.00041026731920651264 0.0006632834038678785 0.0012237908637946738 0.0006632834038678785 0.000838202674016343 0.0004174810399617664 0.0012237908637946738 0.0004174810399617664 0.0026389359362426635" pbc="T T T"
Si       3.05924527       6.28002070       2.71305797
Si       1.58796733       2.78102583       2.87060479
Si       3.98655311       3.28572611       0.42806203
Si       0.42117071       4.37507071      -0.28191313
Si       1.38896126       1.26259063       4.71506946
Si       1.65496565       2.22208752      -0.33331709
Si       5.38546817       6.12688372       2.87840191
Si       2.36076922       4.88736902       0.97126233
Si       3.22454396       4.22186280       3.85430286
Si       5.17903598       3.78872313       2.54850732
10
Lattice="5.553676162338302 -0.33723460616229073 -0.45833181196819944 0.15027432962149112 6.72682622194626 -1.9321881819117392 -0.18118228958990057 1.3082510964812153 5.753484601546141" Properties=species:S:1:pos:R:3 unique_starting_index=87 config_type=initial n_minim_iter=9 stress="-0.0024013763463114853 -0.003031411677545972 -0.0026036601851202133 -0.003031411677545972 0.0005335866213701788 0.0007526230065491657 -0.0026036601851202133 0.0007526230065491657 -0.0019874529198490045" pbc="T T T"
Si       2.99163910       6.24982235       2.67783964
Si       1.51880276       2.74084320       2.81626926
Si       3.96345435       3.26531837       0.38262650
Si       0.39898279       4.36308339      -0.27174174
Si       1.32435306       1.23897125       4.67457068
Si       1.65182801       2.20774178      -0.34016172
Si       5.31826985       6.09406038       2.80903839
Si       2.36405509       4.90844472       0.88509991
Si       3.15691349       4.15542799       3.77475131
Si       5.13793961       3.74800592       2.48055423
10
Lattice="5.586169918623569 -0.35762323864916473 -0.48026266408734497 0.13170957841789233 6.6741281786594335 -1.9186884724922166 -0.21345240113495204 1.2993985296773263 5.71464792568645" Properties=species:S:1:pos:R:3 unique_starting_index=87 config_type=initial n_minim_iter=10 stress="-0.0008733512498398608 -0.004921624301312054 -0.0015408611271671853 -0.004921624301312054 -0.0009433095491094311 0.0025114901288810216 -0.0015408611271671853 0.0025114901288810216 -0.002304982015884425" pbc="T T T"
Si       2.95935466       6.19243670       2.67559160
Si       1.46511271       2.67669464       2.76926164
Si       3.96105111       3.23869585       0.36498014
Si       0.39013692       4.32491385      -0.24233008
Si       1.28851457       1.21464832       4.64686786
Si       1.65627712       2.18779159      -0.31973232
Si       5.31378424       6.04285301       2.78365736
Si       2.40746076       4.93019962       0.78965119
Si       3.13595953       4.05467225       3.71203999
Si       5.14215778       3.69478018       2.45034868
10
Lattice="5.591353221311249 -0.33173705552426647 -0.4894889710979626 0.16479463287110588 6.673362938413468 -1.9672746474439688 -0.22267828381438598 1.2450560425083894 5.671249125577104" Properties=species:S:1:pos:R:3 unique_starting_index=87 config_type=initial n_minim_iter=11 stress="-0.0008517267334244002 -0.002699086901065327 -0.00155163757940921 -0.002699086901065327 -0.0015174830525096002 -0.00046710957847616297 -0.00155163757940921 -0.00046710957847616297 -0.0027392724514252007" pbc="T T T"
Si       2.97218138       6.16246877       2.61049319
Si       1.44160843       2.62333674       2.71291852
Si       3.97181760       3.24946392       0.32309709
Si       0.42201388       4.31193012      -0.25393010
Si       1.25868499       1.18507879       4.60450839
Si       1.66745539       2.19801611      -0.30368693
Si       5.36217201       6.02663231       2.71041349
Si       2.45909283       4.96960226       0.68192051
Si       3.14345973       3.98080291       3.62942983
Si       5.16100561       3.67696460       2.38700673
10
Lattice="5.59198938762036 -0.28866017044298947 -0.4805871243780583 0.21484368441989382 6.664301154003442 -1.9803485804880077 -0.20466281749911538 1.2248170387944985 5.648795494064475" Properties=species:S:1:pos:R:3 unique_starting_index=87 config_type=initial n_minim_iter=12 stress="0.0020097749243250798 0.002348387393889385 6.547610088591114e-05 0.002348387393889385 -0.0010113423230538397 0.0003691870595816219 6.547610088591114e-05 0.0003691870595816219 -0.0015570987927414415" pbc="T T T"
Si       3.02306131       6.15768880       2.59818377
Si       1.43969043       2.58838774       2.68328280
Si       3.99427924       3.27555590       0.31243323
Si       0.46998730       4.30185301      -0.24131361
Si       1.25122975       1.20032489       4.57933058
Si       1.68763566       2.21218560      -0.25440196
Si       5.43908985       6.04066778       2.70448872
Si       2.52978066       5.03030082       0.61940338
Si       3.17637810       3.94279751       3.58916028
Si       5.20001300       3.69538509       2.36746355
10
Lattice="5.543007905293402 -0.25466778555108605 -0.4601549490308995 0.24326180481738177 6.6673621664275045 -2.067511538624951 -0.17644336644932937 1.1525074328412561 5.660004086929217" Properties=species:S:1:pos:R:3 unique_starting_index=87 config_type=initial n_minim_iter=13 stress="0.0014241020608222008 0.005480328494657157 0.0013700110378298683 0.005480328494657157 0.0009906627464754867 -0.002863320725466586 0.0013700110378298683 -0.002863320725466586 0.003031293635465829" pbc="T T T"
Si       3.03991212       6.11070642       2.56020138
Si       1.41626757       2.50363647       2.64111150
Si       3.97083744       3.28547637       0.27672958
Si       0.51394677       4.28876525      -0.25696956
Si       1.22620524       1.19276179       4.57327993
Si       1.69306370       2.22207445      -0.17117992
Si       5.46833751       5.99985927       2.68974205
Si       2.57539272       5.11155820       0.50426952
Si       3.17044979       3.84089052       3.53707761
Si       5.18638477       3.67669424       2.33571318
10
Lattice="5.491746343684945 -0.2264348331785526 -0.4287936118250835 0.26210513092719967 6.641995139966395 -2.105782146670751 -0.13651286231847412 1.1141616152576395 5.663129138977086" Properties=species:S:1:pos:R:3 unique_starting_index=87 config_type=initial n_minim_iter=14 stress="0.0013986457150398119 0.00725396446191518 0.0034951442665406996 0.00725396446191518 0.005682631735491506 -0.0024099775856187664 0.0034951442665406996 -0.0024099775856187664 0.002923768016575957" pbc="T T T"
Si       3.06069543       6.05947065       2.56334566
Si       1.39686312       2.41156104       2.58987992
Si       3.94055671       3.28705100       0.26023395
Si       0.55763037       4.26816961      -0.24624793
Si       1.21340246       1.22375330       4.55970184
Si       1.70796472       2.21715708      -0.02154777
Si       5.48813183       5.94744264       2.73171650
Si       2.62437231       5.21279578       0.41811281
Si       3.16048303       3.74465504       3.49702758
Si       5.16597223       3.66498195       2.32333654
10
Lattice="5.440769726489676 -0.23843440684940329 -0.40978871675752476 0.2335274466734242 6.5603199617498715 -2.1145017967539608 -0.11264092353444982 1.1149870847722634 5.750909109200369" Properties=species:S:1:pos:R:3 unique_starting_index=87 config_type=initial n_minim_iter=15 stress="-0.0019541134582171413 0.0028432343298010116 0.005821877266325238 0.0028432343298010116 0.0034961902854205983 -0.00124934487108566 0.005821877266325238 -0.00124934487108566 0.0036762418058280716" pbc="T T T"
Si       3.03519007       5.97619880       2.62253509
Si       1.40383347       2.36281968       2.60298454
Si       3.89214387       3.23348778       0.26920616
Si       0.55700501       4.22396967      -0.24205987
Si       1.21669037       1.25940556       4.62065722
Si       1.70408670       2.17705577       0.10936680
Si       5.43965176       5.83897683       2.83587556
Si       2.57089798       5.18021568       0.47285773
Si       3.12244496       3.70504399       3.56161188
Si       5.10629235       3.61769729       2.36062392
10
Lattice="5.481882960636279 -0.26073846271592704 -0.4691691703774071 0.22713328429341703 6.4932070084839975 -2.0778297166926305 -0.1803501847485591 1.1423407514182637 5.775784842786964" Properties=species:S:1:pos:R:3 unique_starting_index=87 config_type=initial n_minim_iter=16 stress="0.0009393150677053601 -9.27689975445525e-05 0.0006889522678722845 -9.27689975445525e-05 0.001133020374290044 0.0006137911285131082 0.0006889522678722845 0.0006137911285131082 0.002576323621608494" pbc="T T T"
Si       3.00596923       5.93389544       2.63824753
Si       1.39313402       2.35613065       2.59097114
Si       3.90082539       3.19508496       0.24242809
Si       0.53418762       4.19356266      -0.24456997
Si       1.19999651       1.25619477       4.64539780
Si       1.71576926       2.13602688       0.11710576
Si       5.37716982       5.79021369       2.83116335
Si       2.55278492       5.12786200       0.50928473
Si       3.08322673       3.70677354       3.56735040
Si       5.08688273       3.58393577       2.33589975
10
Lattice="5.500645376789885 -0.27231118011778116 -0.4861682143758675 0.2188106014388952 6.46094863961789 -2.0597367576248002 -0.2029377048342438 1.146889648146098 5.757025441169783" Properties=species:S:1:pos:R:3 unique_starting_index=87 config_type=initial n_minim_iter=17 stress="-0.0007024200547431482 -0.001763792970030218 -0.0007522368937862872 -0.001763792970030218 -0.0010214518499971524 0.0009210604811593959 -0.0007522368937862872 0.0009210604811593959 -0.0033528565534889144" pbc="T T T"
Si       2.99131900       5.91179112       2.62714035
Si       1.39464652       2.34913869       2.56590268
Si       3.90856162       3.17580321       0.22295172
Si       0.52261555       4.17554630      -0.25306833
Si       1.20779037       1.23579498       4.63903213
Si       1.72291310       2.10906834       0.13042067
Si       5.34828240       5.77115322       2.80949696
Si       2.53150518       5.09554334       0.53026096
Si       3.07356532       3.71097041       3.55303327
Si       5.07734610       3.55113142       2.30838237
10
Lattice="5.510428797636503 -0.2830773134473488 -0.5097015796419379 0.21182760445554372 6.429353026331885 -2.0685718390200183 -0.23000762402860098 1.1411809776614428 5.782894413453633" Properties=species:S:1:pos:R:3 unique_starting_index=87 config_type=initial n_minim_iter=18 stress="-0.0021964506018028527 -0.0022678711803108195 -0.0015757104451085363 -0.0022678711803108195 -0.0015730188175833908 0.001184494826071844 -0.0015757104451085363 0.001184494826071844 -0.0009868112268213327" pbc="T T T"
Si       2.96406778       5.89003481       2.62886783
Si       1.38714929       2.33548430       2.56703316
Si       3.90502440       3.16096871       0.19834149
Si       0.50963340       4.15297391      -0.26961556
Si       1.20149260       1.20708039       4.66392439
Si       1.72485474       2.08132180       0.14411700
Si       5.32421307       5.75296802       2.79521280
Si       2.51261682       5.05807626       0.53868676
Si       3.05510183       3.69838874       3.56035402
Si       5.05946596       3.50556146       2.28675076
10
Lattice="5.531372615264268 -0.2749775073251064 -0.5139376657546234 0.22234359599245576 6.417785819141772 -2.090312676841894 -0.23475098781107634 1.1168788384155461 5.771177399858276" Properties=species:S:1:pos:R:3 unique_starting_index=87 config_type=initial n_minim_iter=19 stress="-0.0006898758027442354 -0.0006256517276691226 -0.0004932672735722694 -0.0006256517276691226 -0.0004212281157011493 0.0003387567314011824 -0.0004932672735722694 0.0003387567314011824 -0.0028204314429525475" pbc="T T T"
Si       2.97552948       5.87805543       2.60400119
Si       1.38957410       2.31161580       2.55089636
Si       3.92015462       3.16610439       0.16936420
Si       0.51794609       4.13817175      -0.29153815
Si       1.20575488       1.18163496       4.65330643
Si       1.73806091       2.06580296       0.17189249
Si       5.35526200       5.74770731       2.76070880
Si       2.52819043       5.05128547       0.51552101
Si       3.06934079       3.67612204       3.53513337
Si       5.07575869       3.47543299       2.25009471
10
Lattice="5.536573706263045 -0.272741938523255 -0.5120959020620678 0.22392374997166942 6.421292705901106 -2.1048393423961818 -0.23137713624359932 1.1101065626798103 5.789300448104384" Properties=species:S:1:pos:R:3 unique_starting_index=87 config_type=initial n_minim_iter=20 stress="-0.0003556420144433476 -1.4560378387731353e-05 -4.384876572254099e-05 -1.4560378387731353e-05 -0.0005704311944183376 1.127682345066151e-05 -4.384876572254099e-05 1.127682345066151e-05 6.477071780092475e-06" pbc="T T T"
Si       2.98170790       5.88703098       2.60240822
Si       1.40008700       2.31867699       2.57626431
Si       3.92443301       3.17256931       0.16161703
Si       0.51762353       4.13520489      -0.31015072
Si       1.21322986       1.17352855       4.66483891
Si       1.73870343       2.06094847       0.17229166
Si       5.37397750       5.75569638       2.75399752
Si       2.51540139       5.02578526       0.53714299
Si       3.08228722       3.68958055       3.55216733
Si       5.08093009       3.46420473       2.24610127
10
Lattice="5.548942608338777 -0.2688058255375913 -0.5227393971596658 0.2306157994748199 6.410290717661634 -2.1356210162618035 -0.24258785389361703 1.0850925430617702 5.801350945413548" Properties=species:S:1:pos:R:3 unique_starting_index=87 config_type=initial n_minim_iter=21 stress="0.0007329651646399101 0.001425418087804566 0.0010636328002168933 0.001425418087804566 0.0010466393250731605 -0.00017390957213288366 0.0010636328002168933 -0.00017390957213288366 0.0021549451287703135" pbc="T T T"
Si       2.98959995       5.87185657       2.59058445
Si       1.38726870       2.28950045       2.58425019
Si       3.92466581       3.17719980       0.12703817
Si       0.52441083       4.11645866      -0.33322478
Si       1.20290060       1.15783063       4.66618459
Si       1.74501968       2.04673238       0.20046023
Si       5.38959485       5.73844655       2.72573059
Si       2.52629795       5.01977763       0.50432777
Si       3.08936056       3.65787176       3.53444739
Si       5.08308615       3.43444749       2.21665872
