24
Lattice="8.268412102952182 2.6533640633097217 -0.5709902972566737 -1.9207931455211438 7.452539984033835 -0.17969935163779566 -0.5176033020799645 -0.4834462565092199 6.953712910855679" Properties=species:S:1:pos:R:3 unique_starting_index=90 config_type=initial n_minim_iter=1 energy=-3907.986684166471 free_energy=-3907.986684166471 pbc="T T T"
Si       5.77672247       0.76272932       4.39887175
Si       1.00151021       3.71468163      -0.50363819
Si       5.86709655       8.02014077       1.19379837
Si       2.11336575       1.28781765       1.81800919
Si       4.61330365       4.21332172       5.72106835
Si      -1.16314205       4.74532249       5.68559104
Si       0.32515288       2.83223836       1.62337679
Si       2.28066078       4.77142318       6.15168157
Si       0.52507144       8.07642702       3.92172750
Si       6.36457477       3.91073280       3.88507845
Si       2.29313232       6.68656704       0.93950925
Si       4.23883066       9.69577322       1.91221641
Si       5.21473063      10.34475746      -1.18195306
Si       8.68753981       4.04668418       4.41810443
Si      -0.06139120       6.22910913       1.40202829
Si      -1.24297993       7.08573551       6.42368982
Si      -1.82474455       1.74372513       1.37452403
Si       4.95275786       6.71913465       5.89148084
Si       3.93365159       1.82222522       5.50486391
Si      -0.22657900       4.51316380       3.25873322
Si       1.51311055       5.86201319       4.21236235
Si       4.23006095       1.56608154       0.81646353
Si       5.75191107       5.91452507       2.55127719
Si       3.41973875       6.24434038       2.88867322
24
Lattice="8.281245650584584 2.650552275357248 -0.5642283116488501 -1.9209039329992255 7.438867659444963 -0.1628391953574228 -0.5167674882380573 -0.4661356351906761 6.973160991686205" Properties=species:S:1:pos:R:3 unique_starting_index=90 config_type=initial n_minim_iter=2 stress="0.001362149907784792 5.466351796400252e-05 -8.656521952193142e-05 5.466351796400252e-05 0.0011781566430551756 0.0003284996044674692 -8.656521952193142e-05 0.0003284996044674692 0.0007584023528102305" pbc="T T T"
Si       5.78659024       0.77424041       4.41547742
Si       1.00398449       3.70744327      -0.49553813
Si       5.87853609       8.01163429       1.21778159
Si       2.11674344       1.29114322       1.82754561
Si       4.62286822       4.22247337       5.74955507
Si      -1.16171294       4.75064828       5.71261853
Si       0.32731895       2.83141553       1.63478181
Si       2.28710361       4.77879899       6.18213172
Si       0.52958866       8.07212161       3.95271901
Si       6.37587746       3.91556711       3.90766526
Si       2.29956385       6.67840314       0.95873447
Si       4.24909779       9.68558371       1.94238109
Si       5.22604748      10.32613088      -1.15952843
Si       8.70270506       4.05366250       4.44378151
Si      -0.05868397       6.22235447       1.42194213
Si      -1.23985895       7.08834204       6.45910844
Si      -1.82617528       1.74301894       1.38242170
Si       4.96421890       6.72424679       5.92607978
Si       3.94136790       1.83354279       5.52683051
Si      -0.22429729       4.51330430       3.27869469
Si       1.51840095       5.86305588       4.23930351
Si       4.23707503       1.56675347       0.82383292
Si       5.76269546       5.91287145       2.57458049
Si       3.42765430       6.24203697       2.91355925
24
Lattice="8.272334432914892 2.644855474330592 -0.5607258915835011 -1.9181085049749873 7.421361958338798 -0.1582276162605571 -0.5146448376464393 -0.4602873027679375 6.975520591279876" Properties=species:S:1:pos:R:3 unique_starting_index=90 config_type=initial n_minim_iter=3 stress="-0.00046521186200252035 0.00013052858767050813 6.409494872652517e-05 0.00013052858767050813 -0.00124383535335507 0.0006908436981220024 6.409494872652517e-05 0.0006908436981220024 -0.0003705137032305946" pbc="T T T"
Si       5.78139958       0.77625121       4.41935709
Si       1.00288762       3.69839752      -0.49252010
Si       5.87281284       7.99449895       1.22465314
Si       2.11438989       1.28996213       1.83026735
Si       4.61942829       4.21805183       5.75602425
Si      -1.15873820       4.74361942       5.71675316
Si       0.32780459       2.82595675       1.63710199
Si       2.28627580       4.77211968       6.18862374
Si       0.53050294       8.05604432       3.95978767
Si       6.36987533       3.90954857       3.91342474
Si       2.29841799       6.66361876       0.96399573
Si       4.24590132       9.66490528       1.95088905
Si       5.22137650      10.30167028      -1.15190058
Si       8.69458894       4.04833622       4.45101672
Si      -0.05747457       6.20944242       1.42766060
Si      -1.23557783       7.07572961       6.46585649
Si      -1.82343000       1.73934445       1.38383948
Si       4.96125230       6.71382459       5.93389646
Si       3.93844693       1.83316091       5.53136550
Si      -0.22265750       4.50509037       3.28249048
Si       1.51817549       5.85277397       4.24527771
Si       4.23290978       1.56399983       0.82632273
Si       5.75714854       5.90162186       2.58098410
Si       3.42507794       6.23003294       2.92027949
24
Lattice="8.259379695743299 2.6384517944876578 -0.5630188383175019 -1.9188079054528904 7.412094349637924 -0.17214204286728402 -0.5099885694751607 -0.4707022710675853 7.005308286621571" Properties=species:S:1:pos:R:3 unique_starting_index=90 config_type=initial n_minim_iter=4 stress="-0.000759455846053377 -0.0002125023208266922 0.0006408722519396542 -0.0002125023208266922 -0.0012974562165186095 -0.0010378494107209897 0.0006408722519396542 -0.0010378494107209897 0.0022201932676175033" pbc="T T T"
Si       5.77560946       0.76674489       4.44137059
Si       0.99784382       3.69164611      -0.49709456
Si       5.85901731       7.97857887       1.21582656
Si       2.10808988       1.28632670       1.84157444
Si       4.61338154       4.20726087       5.77715007
Si      -1.15674063       4.72923000       5.72376294
Si       0.32798858       2.81885883       1.63699103
Si       2.28274730       4.75373763       6.20967559
Si       0.52680349       8.03738475       3.96211471
Si       6.35926575       3.89273445       3.92709433
Si       2.29640209       6.64922202       0.95666792
Si       4.23692701       9.64604137       1.94593110
Si       5.21082508      10.28479184      -1.17228394
Si       8.68289889       4.03281421       4.47220585
Si      -0.05793925       6.20226509       1.42961928
Si      -1.22816103       7.05161254       6.47775881
Si      -1.81919170       1.73262509       1.38638812
Si       4.95768646       6.69652725       5.94839765
Si       3.93438421       1.81734587       5.55468822
Si      -0.22104752       4.49326551       3.28481764
Si       1.51491904       5.83806713       4.25357632
Si       4.22760582       1.55848448       0.83018874
Si       5.74485477       5.88719131       2.58477019
Si       3.41814863       6.21557045       2.92725061
24
Lattice="8.251045786851604 2.6410810131194165 -0.5773999266652355 -1.9154418040352341 7.42147992496626 -0.1466611936227147 -0.5278552108172417 -0.45247619994083016 7.001089362900311" Properties=species:S:1:pos:R:3 unique_starting_index=90 config_type=initial n_minim_iter=5 stress="-2.6182593214064887e-05 -0.0004924789009117754 -0.000932760161141232 -0.0004924789009117754 -0.00047952580079023703 1.20600891228856e-05 -0.000932760161141232 1.20600891228856e-05 -0.0003388221713198465" pbc="T T T"
Si       5.75825798       0.78586419       4.43293185
Si       0.98948679       3.68682727      -0.47497597
Si       5.83700750       7.99162467       1.20272548
Si       2.08441190       1.30195770       1.86018899
Si       4.58970668       4.25802582       5.78005978
Si      -1.17163260       4.75461301       5.69623222
Si       0.32780723       2.82611755       1.63074989
Si       2.25657369       4.77430551       6.21920929
Si       0.50909163       8.05607664       3.97380887
Si       6.33147687       3.89862042       3.91987497
Si       2.30879484       6.64898785       0.96234201
Si       4.22799910       9.66356703       1.96181621
Si       5.21696687      10.28685045      -1.16370616
Si       8.65960479       4.05543318       4.47833299
Si      -0.05521671       6.23250797       1.47457838
Si      -1.21787693       7.05845488       6.48281849
Si      -1.81321772       1.72532892       1.39724686
Si       4.95052513       6.73981563       5.94093097
Si       3.91126287       1.82324958       5.55160676
Si      -0.22226266       4.50664697       3.27751244
Si       1.49890651       5.86104593       4.26115772
Si       4.22378766       1.56295519       0.82558064
Si       5.71799398       5.90458624       2.58186300
Si       3.40126179       6.23447910       2.94638167
24
Lattice="8.247106423331577 2.6622535763837254 -0.5476800498519656 -1.8984776674567265 7.428378732315181 -0.14918998342950066 -0.5046412419269367 -0.4505365453434362 6.998676973244604" Properties=species:S:1:pos:R:3 unique_starting_index=90 config_type=initial n_minim_iter=6 stress="-0.000811029762551659 0.0006717296025171352 0.0009873507184995191 0.0006717296025171352 0.0007118248412385957 0.00013495204821794676 0.0009873507184995191 0.00013495204821794676 -0.00017965193780321705" pbc="T T T"
Si       5.76937468       0.80235772       4.45348147
Si       0.99309916       3.69459651      -0.46861787
Si       5.85110429       8.01635721       1.22395062
Si       2.09177359       1.30987040       1.87054932
Si       4.61378215       4.28106527       5.79940263
Si      -1.14021252       4.76151397       5.68652819
Si       0.33788994       2.83236831       1.63236891
Si       2.28443722       4.78836946       6.22925040
Si       0.53729611       8.07121449       3.98002322
Si       6.34555059       3.91854527       3.94415316
Si       2.32627082       6.66364066       0.97424366
Si       4.25150813       9.68780714       1.98144489
Si       5.23218049      10.31200422      -1.14079720
Si       8.67505423       4.08242618       4.51287890
Si      -0.03631151       6.24707703       1.48227799
Si      -1.17552801       7.06550802       6.48032812
Si      -1.80240908       1.72285067       1.39195742
Si       4.98251496       6.76605279       5.95962637
Si       3.92966000       1.83661029       5.56696781
Si      -0.20052394       4.51395743       3.27595963
Si       1.52351830       5.87521302       4.27017182
Si       4.22479200       1.57363821       0.84220289
Si       5.73259058       5.92671106       2.60354801
Si       3.42032341       6.25326111       2.96289967
24
Lattice="8.292541098305028 2.654289578355128 -0.5254978117776261 -1.9062628868414553 7.392474398142028 -0.16500445951043077 -0.4854879307736346 -0.45723193380414334 7.0092204520413315" Properties=species:S:1:pos:R:3 unique_starting_index=90 config_type=initial n_minim_iter=7 stress="0.004448926848069316 0.00032945751478040403 0.0016727026465314682 0.00032945751478040403 -0.0017007456947208991 -0.001969474111769155 0.0016727026465314682 -0.001969474111769155 0.0005697460460569959" pbc="T T T"
Si       5.81375763       0.79846797       4.47933720
Si       0.98906160       3.68732141      -0.47218409
Si       5.88523003       7.97774542       1.21672915
Si       2.12079009       1.30186198       1.89095207
Si       4.66034792       4.27420495       5.82982957
Si      -1.11545481       4.72285393       5.63470989
Si       0.33178777       2.82088924       1.63092860
Si       2.31107346       4.74942259       6.23666756
Si       0.54650057       8.02939352       3.98571833
Si       6.38669335       3.89156897       3.97127267
Si       2.35717302       6.63338296       0.98324321
Si       4.28600814       9.64015016       1.98471514
Si       5.27764466      10.26570104      -1.14124286
Si       8.73463143       4.06169182       4.55937340
Si      -0.02675013       6.24906578       1.50278850
Si      -1.13198868       6.99393185       6.46947663
Si      -1.80439721       1.70250904       1.38523964
Si       5.04332773       6.74162202       5.96721985
Si       3.96400310       1.82418789       5.59413867
Si      -0.18421504       4.48461974       3.25869323
Si       1.54065481       5.83985476       4.28472532
Si       4.24055269       1.55706242       0.86631766
Si       5.77098701       5.89502153       2.61082079
Si       3.44637211       6.22799807       2.97693492
24
Lattice="8.241080612272773 2.6538432403936696 -0.5312138383855705 -1.8999789321746783 7.4138402549071865 -0.14380627138968755 -0.4904052609587969 -0.4397567587254304 7.041804542060023" Properties=species:S:1:pos:R:3 unique_starting_index=90 config_type=initial n_minim_iter=8 stress="0.0006741045179452728 -0.0009413197026036041 0.0008456127505889033 -0.0009413197026036041 0.0012313806198595064 -0.0006080725690172515 0.0008456127505889033 -0.0006080725690172515 0.003233418446066375" pbc="T T T"
Si       5.77072354       0.81005223       4.49624325
Si       0.97361598       3.70300302      -0.46727876
Si       5.83876238       7.99691792       1.22349805
Si       2.11264043       1.30933708       1.90993798
Si       4.62265414       4.31034957       5.87179440
Si      -1.11057153       4.74398460       5.63635864
Si       0.31511289       2.83424500       1.64446691
Si       2.28067503       4.76970150       6.27274660
Si       0.52560781       8.06263696       4.03227515
Si       6.33506064       3.90319730       3.99680863
Si       2.34503160       6.65312809       1.00922950
Si       4.25008874       9.66711335       2.01297962
Si       5.25230166      10.28606907      -1.12758012
Si       8.66895484       4.07743726       4.59271332
Si      -0.03160318       6.29557364       1.54603655
Si      -1.11893299       7.00839727       6.51320421
Si      -1.79437416       1.70537567       1.39727558
Si       5.00939156       6.78102882       5.99938895
Si       3.92742000       1.84220335       5.62618019
Si      -0.18640678       4.50363084       3.27502188
Si       1.51635174       5.86348454       4.32618613
Si       4.20522753       1.55353772       0.87771714
Si       5.72542490       5.91134882       2.62561036
Si       3.41401009       6.25481882       3.00757279
24
Lattice="8.252342613462554 2.6968964007580016 -0.553253770593005 -1.8594347514933935 7.403597033518176 -0.13527195328521505 -0.512832757101306 -0.43998491251056115 7.031046642548569" Properties=species:S:1:pos:R:3 unique_starting_index=90 config_type=initial n_minim_iter=9 stress="-7.071514408086436e-05 0.0017814638289719142 -0.0011640828180154777 0.0017814638289719142 3.1600999951044884e-06 -0.00041988059692953155 -0.0011640828180154777 -0.00041988059692953155 0.0009180498842495239" pbc="T T T"
Si       5.75705794       0.84361913       4.47232181
Si       0.98986413       3.71046780      -0.46945181
Si       5.87451158       8.02750996       1.20226430
Si       2.11373868       1.32442303       1.90697407
Si       4.62685095       4.33990605       5.85431617
Si      -1.09838408       4.73487230       5.61193277
Si       0.32222680       2.83428001       1.64038613
Si       2.28504030       4.78221571       6.25800673
Si       0.55428449       8.06744862       4.03337652
Si       6.33883988       3.93642076       3.97569807
Si       2.37819132       6.66375223       1.00439555
Si       4.29150078       9.68843326       1.99926459
Si       5.31544641      10.31316605      -1.13776112
Si       8.66852686       4.12325618       4.56713589
Si      -0.00349796       6.30888551       1.55441057
Si      -1.09204310       6.99166323       6.50355223
Si      -1.78900493       1.69352951       1.39918536
Si       5.02939505       6.81238443       5.97222475
Si       3.91622030       1.86663977       5.60929296
Si      -0.17034352       4.50452249       3.26824412
Si       1.53081369       5.87206851       4.32008603
Si       4.20849479       1.57449775       0.86703998
Si       5.74518811       5.94057274       2.60312834
Si       3.43583947       6.27568031       2.99731498
24
Lattice="8.255025041595974 2.6770144881500486 -0.5203512684382781 -1.8805864445530638 7.413649714040314 -0.11597529808117198 -0.494709794184782 -0.4176730485778839 6.982064491949028" Properties=species:S:1:pos:R:3 unique_starting_index=90 config_type=initial n_minim_iter=10 stress="-0.0014962513777757788 0.00014645603047948265 -0.0009829430875239805 0.00014645603047948265 -0.0011324161774304965 0.0012417001241768655 -0.0009829430875239805 0.0012417001241768655 -0.004882652107061262" pbc="T T T"
Si       5.76946732       0.84765419       4.45996820
Si       0.97485465       3.71239656      -0.45470519
Si       5.86790471       8.02272977       1.22730396
Si       2.11805986       1.33426619       1.91532408
Si       4.63885304       4.35265681       5.84753937
Si      -1.09583954       4.74923214       5.55407938
Si       0.31593657       2.83515861       1.63516756
Si       2.29039217       4.79834977       6.24144194
Si       0.54346183       8.08749056       4.04683335
Si       6.34463488       3.93488700       3.98249444
Si       2.36843120       6.66133796       1.02441648
Si       4.27402948       9.68913173       2.02407311
Si       5.30925039      10.30538667      -1.08568737
Si       8.67259398       4.11591995       4.58172595
Si      -0.01755867       6.34093020       1.57641981
Si      -1.08232857       6.99676357       6.47118368
Si      -1.79375705       1.69935150       1.38783708
Si       5.04149539       6.82714703       5.95773375
Si       3.92590561       1.88019931       5.59447736
Si      -0.17114568       4.52222715       3.25691340
Si       1.52420840       5.88560658       4.31816861
Si       4.21505693       1.56775051       0.87911276
Si       5.74384544       5.93621241       2.61266779
Si       3.43169640       6.28442273       3.01127813
24
Lattice="8.270950050769748 2.667926204126372 -0.4682302857513695 -1.8878051080796112 7.398484643744593 -0.10238449284642342 -0.4586952720851055 -0.39415724541007086 6.984855586074973" Properties=species:S:1:pos:R:3 unique_starting_index=90 config_type=initial n_minim_iter=11 stress="-0.0012124881562672518 -0.00068039428408373 6.956556434210395e-05 -0.00068039428408373 -0.0013353939753793192 0.0008451716317402142 6.956556434210395e-05 0.0008451716317402142 -0.004218319331790835" pbc="T T T"
Si       5.79362884       0.87114456       4.49749030
Si       0.95921908       3.70918403      -0.44651526
Si       5.89592311       8.00927073       1.27102161
Si       2.13336280       1.36132889       1.96333286
Si       4.68427624       4.36297885       5.90642553
Si      -1.06994534       4.73282156       5.49176510
Si       0.31528614       2.81923609       1.63890096
Si       2.32647311       4.80692332       6.28623826
Si       0.56245104       8.09218534       4.11866636
Si       6.37410832       3.93796895       4.04336786
Si       2.37576117       6.63875415       1.05921683
Si       4.28110094       9.66680093       2.07211303
Si       5.35418106      10.28067814      -1.02749670
Si       8.69315839       4.11071841       4.66893421
Si      -0.01901528       6.38821632       1.62589911
Si      -1.02533915       6.94390556       6.46940488
Si      -1.79689676       1.69183940       1.37701542
Si       5.09978543       6.83597269       5.98895880
Si       3.95295379       1.90740656       5.64149305
Si      -0.14901637       4.53425868       3.26559061
Si       1.53779175       5.88751848       4.36002061
Si       4.23853709       1.56635248       0.91206283
Si       5.76855582       5.92366050       2.64865706
Si       3.45458635       6.28836906       3.06497569
24
Lattice="8.287130291109676 2.6697889308356695 -0.44737899693302074 -1.88651966712821 7.38761742427166 -0.09758987820142988 -0.44389655994138144 -0.3847653860859846 7.005107191907655" Properties=species:S:1:pos:R:3 unique_starting_index=90 config_type=initial n_minim_iter=12 stress="-0.00014933985902702035 -0.00048346338654928607 0.0003268467922590806 -0.00048346338654928607 -4.670884812301128e-05 0.00017464566926445589 0.0003268467922590806 0.00017464566926445589 -0.0006639464061008556" pbc="T T T"
Si       5.80500113       0.89016839       4.52495742
Si       0.95623158       3.70621667      -0.45006839
Si       5.92800538       8.00711905       1.29605503
Si       2.14549038       1.38161945       1.99672909
Si       4.71229246       4.35699124       5.94503742
Si      -1.06249247       4.71634234       5.48314211
Si       0.31675353       2.80791603       1.64561236
Si       2.35224686       4.81315958       6.32528084
Si       0.58247742       8.09626128       4.17341883
Si       6.39759198       3.94726925       4.07971806
Si       2.37702128       6.62794553       1.07775569
Si       4.29317787       9.65373938       2.09624581
Si       5.39491115      10.27147799      -1.00569226
Si       8.70728973       4.10885231       4.71768965
Si      -0.02014028       6.40984290       1.64325773
Si      -0.99953987       6.90747829       6.47920744
Si      -1.80232428       1.68859598       1.37349678
Si       5.13290400       6.83398044       6.01543717
Si       3.96971763       1.92763996       5.67685317
Si      -0.13419913       4.54189808       3.27892912
Si       1.55115741       5.88888971       4.39015620
Si       4.25856682       1.57064766       0.92647735
Si       5.79150550       5.91901617       2.66828746
Si       3.47537510       6.29128886       3.09376002
24
Lattice="8.31159741798913 2.6794737320435003 -0.42102356364435256 -1.8756270370273045 7.363631146799423 -0.0871231442371435 -0.4265240291464864 -0.3688834747004792 7.039892313002541" Properties=species:S:1:pos:R:3 unique_starting_index=90 config_type=initial n_minim_iter=13 stress="0.0015698845377930502 0.00021013384069188667 0.0006573142885539439 0.00021013384069188667 0.0009297532504524739 -0.0008918512580828875 0.0006573142885539439 -0.0008918512580828875 0.00456556632587897" pbc="T T T"
Si       5.81660037       0.93223809       4.56879120
Si       0.95303410       3.69717481      -0.45337022
Si       5.98006913       8.00563258       1.32419808
Si       2.16944405       1.41633130       2.06478144
Si       4.75062859       4.35682827       6.00345554
Si      -1.05405282       4.68523663       5.46936161
Si       0.31594543       2.79552964       1.65670224
Si       2.38899328       4.81988674       6.38571143
Si       0.61606136       8.10180220       4.26353921
Si       6.42760177       3.96439215       4.13030828
Si       2.38552028       6.61153568       1.11373576
Si       4.32264985       9.62924634       2.13679293
Si       5.47196631      10.25119261      -0.97690408
Si       8.72689689       4.11302142       4.79557359
Si      -0.01606891       6.44752661       1.67468905
Si      -0.94680682       6.83352118       6.48994318
Si      -1.80618578       1.67558577       1.37142295
Si       5.18461467       6.83595529       6.05619894
Si       3.99303942       1.96075681       5.73133865
Si      -0.10246808       4.54907266       3.28780222
Si       1.57753809       5.89226322       4.44051776
Si       4.28336669       1.57675559       0.95005869
Si       5.82303713       5.91557334       2.69555718
Si       3.50818739       6.29907850       3.13832456
24
Lattice="8.332425420520622 2.685919427707971 -0.41299889532391626 -1.8719277821510054 7.357165091251296 -0.07514102837925149 -0.4249679773620192 -0.35703887473770973 7.044077434755177" Properties=species:S:1:pos:R:3 unique_starting_index=90 config_type=initial n_minim_iter=14 stress="0.0019466123218156587 0.000640615107052257 0.00011878977605132974 0.000640615107052257 0.0018044727819677348 -0.0015012601782522545 0.00011878977605132974 -0.0015012601782522545 0.006845959863838781" pbc="T T T"
Si       5.81531077       0.97566922       4.58041982
Si       0.95239564       3.68605340      -0.45915413
Si       6.02527261       8.01818535       1.33390885
Si       2.19391159       1.45465897       2.13425101
Si       4.76437598       4.34268181       6.00726476
Si      -1.07864839       4.65997603       5.47394192
Si       0.31071571       2.79485426       1.66314350
Si       2.40872852       4.83360777       6.40921270
Si       0.63628385       8.12784017       4.33369363
Si       6.44378765       3.98587009       4.13469616
Si       2.36940586       6.61126401       1.14299907
Si       4.34262943       9.61440392       2.16004053
Si       5.53574018      10.24348363      -0.96159562
Si       8.73285418       4.10996788       4.82278735
Si      -0.02855122       6.48291956       1.66605022
Si      -0.92481531       6.77296893       6.46302272
Si      -1.81427650       1.66907415       1.36786599
Si       5.19922415       6.83217900       6.06321438
Si       4.00801266       1.99092404       5.74367010
Si      -0.07670325       4.56700030       3.27251817
Si       1.59990735       5.91073365       4.46010681
Si       4.30223076       1.58182719       0.95648591
Si       5.83875448       5.92089667       2.69848412
Si       3.52871561       6.31635589       3.15038934
24
Lattice="8.334099103411283 2.6958950022381813 -0.3968987301795644 -1.8621512600720953 7.356955516493134 -0.05404635265623895 -0.41970596189805726 -0.33707910752687786 7.026917901665285" Properties=species:S:1:pos:R:3 unique_starting_index=90 config_type=initial n_minim_iter=15 stress="0.0016508533006016131 0.0009617586841231911 0.00043710328850633156 0.0009617586841231911 0.0009151878798972896 -0.0009033745130302488 0.00043710328850633156 -0.0009033745130302488 0.0050268330567396395" pbc="T T T"
Si       5.81271783       1.01765195       4.58466913
Si       0.94489674       3.68331401      -0.44569020
Si       6.03624867       8.03507029       1.33463602
Si       2.20931064       1.48339513       2.19166450
Si       4.76872590       4.37896681       6.01279435
Si      -1.07767254       4.65099499       5.42613630
Si       0.30392632       2.80530365       1.66422395
Si       2.41181750       4.84967764       6.41467151
Si       0.64300295       8.15498746       4.37725753
Si       6.43836516       4.00327329       4.13802102
Si       2.37721984       6.61759836       1.17624131
Si       4.36047582       9.61713397       2.19284736
Si       5.57972443      10.24209045      -0.93038137
Si       8.72968320       4.12876308       4.85695265
Si      -0.02423353       6.53775061       1.69410439
Si      -0.87345228       6.73200713       6.43258435
Si      -1.80665572       1.65450204       1.36595316
Si       5.21484669       6.86502723       6.06372311
Si       4.01248680       2.01632912       5.74913817
Si      -0.04986357       4.58333511       3.24485822
Si       1.61413581       5.93566967       4.47668714
Si       4.29771612       1.58253541       0.97462361
Si       5.83415125       5.93852591       2.70429264
Si       3.53523905       6.34605163       3.17294488
24
Lattice="8.31271987301524 2.6861501680921394 -0.42166226510759075 -1.8748174756911702 7.386600629105279 -0.05222761479198219 -0.44034568048254946 -0.343010930958606 6.9744204467996305" Properties=species:S:1:pos:R:3 unique_starting_index=90 config_type=initial n_minim_iter=16 stress="-0.0008409197662525136 0.0002035841427768367 -0.000717498599359908 0.0002035841427768367 0.00021125458151637723 0.00011515768109269056 -0.000717498599359908 0.00011515768109269056 -0.0027404379990102496" pbc="T T T"
Si       5.79683494       1.00465296       4.53335997
Si       0.94409287       3.68531667      -0.43826582
Si       5.99247528       8.04967391       1.29801924
Si       2.19689240       1.47184962       2.17090360
Si       4.72143727       4.38432270       5.93436365
Si      -1.10701347       4.66577022       5.42492067
Si       0.29892029       2.82745212       1.65541691
Si       2.36842580       4.85315379       6.34892527
Si       0.60532648       8.17332353       4.31904293
Si       6.40100339       3.99648757       4.06838059
Si       2.35335099       6.64154419       1.15949328
Si       4.33782431       9.63659620       2.16747391
Si       5.52937391      10.25940418      -0.94865761
Si       8.70215502       4.12194891       4.78319835
Si      -0.04081970       6.53609074       1.65177824
Si      -0.90753928       6.77402839       6.38314577
Si      -1.80155853       1.65973648       1.36611531
Si       5.14900666       6.87015772       6.01427915
Si       3.99169009       1.99774867       5.68639197
Si      -0.06534926       4.59568965       3.20746347
Si       1.59670927       5.95448573       4.42526544
Si       4.26966117       1.57423210       0.95818661
Si       5.79285011       5.95360374       2.67013471
Si       3.50176671       6.36154505       3.12961409
24
Lattice="8.319086616284363 2.6643880597671945 -0.3787488046765218 -1.8898408557126696 7.369174303373078 -0.031796765650540154 -0.41235032586186854 -0.31449461357755676 6.977061567714156" Properties=species:S:1:pos:R:3 unique_starting_index=90 config_type=initial n_minim_iter=17 stress="-0.00038633906478940033 -0.0003759093739406936 0.0008484055345775487 -0.0003759093739406936 -0.0014747229549665181 0.0013622748099688903 0.0008484055345775487 0.0013622748099688903 -0.001176346850603299" pbc="T T T"
Si       5.82159494       1.02192446       4.56333106
Si       0.92928178       3.67351126      -0.42598717
Si       5.99896363       8.02547310       1.33630809
Si       2.20846579       1.49005728       2.21729897
Si       4.74302314       4.39118360       5.97854667
Si      -1.09445435       4.63676140       5.38661581
Si       0.29920629       2.81664545       1.66763826
Si       2.37926791       4.85947981       6.39063178
Si       0.60771464       8.16951388       4.39465945
Si       6.41451428       3.99089363       4.11047644
Si       2.34615745       6.61632443       1.19373255
Si       4.33644240       9.59990638       2.22253845
Si       5.55129300      10.21998569      -0.88980231
Si       8.70983085       4.10492363       4.85633076
Si      -0.05297952       6.57099972       1.68240804
Si      -0.86454239       6.73532112       6.37890308
Si      -1.79987287       1.65096145       1.36001736
Si       5.16326690       6.86795191       6.05636719
Si       4.01229863       2.01698473       5.73163119
Si      -0.04963259       4.61498847       3.21642474
Si       1.60406396       5.95703459       4.46370345
Si       4.27651971       1.56701492       0.99635008
Si       5.79835246       5.94153893       2.70562234
Si       3.51004223       6.36888500       3.18166572
24
Lattice="8.313189827849866 2.641014627387697 -0.3865721126897349 -1.914792580115932 7.383080294414529 -0.045727646789098755 -0.41332107809563395 -0.32695640210292914 6.97523456824437" Properties=species:S:1:pos:R:3 unique_starting_index=90 config_type=initial n_minim_iter=18 stress="0.00031218346176572175 -0.0007029262859195472 0.0004410855772843431 -0.0007029262859195472 -0.001000382412758438 0.00039343063618301854 0.0004410855772843431 0.00039343063618301854 0.0013367252329855926" pbc="T T T"
Si       5.84107316       1.00566691       4.55602514
Si       0.92350245       3.66332488      -0.43395084
Si       5.97752831       8.01878862       1.30611190
Si       2.19660777       1.48686975       2.23216891
Si       4.71458762       4.36361962       5.94936845
Si      -1.11791187       4.57103578       5.37120800
Si       0.30868293       2.81184666       1.67774400
Si       2.34001177       4.84828914       6.38599911
Si       0.57933816       8.15571889       4.41964776
Si       6.40003326       3.97009162       4.07538137
Si       2.30927441       6.60939404       1.17026640
Si       4.31900777       9.57139228       2.21159583
Si       5.54093884      10.21835445      -0.90836614
Si       8.68526924       4.05679648       4.84856203
Si      -0.08844025       6.59428645       1.61965553
Si      -0.86662450       6.71796159       6.32046441
Si      -1.79402919       1.64346106       1.35191164
Si       5.09001153       6.83607321       6.05366962
Si       4.01419636       1.99712099       5.74746110
Si      -0.05211856       4.65525262       3.20231358
Si       1.59392187       5.96012849       4.44444384
Si       4.26441429       1.56047009       1.02011472
Si       5.77541192       5.94588184       2.68682570
Si       3.49442378       6.39325117       3.17383528
24
Lattice="8.308909159626722 2.6737140187066863 -0.40788298038275406 -1.8978669371639147 7.4227635844939 -0.06412190278981693 -0.4270721053676916 -0.35221285850688344 6.942079244818223" Properties=species:S:1:pos:R:3 unique_starting_index=90 config_type=initial n_minim_iter=19 stress="-0.00016563779340521468 0.0010206439095854442 -0.0004785737310234428 0.0010206439095854442 0.0013828299620988365 -0.000697211575564076 -0.0004785737310234428 -0.000697211575564076 -0.000732469233064472" pbc="T T T"
Si       5.83787136       1.02101612       4.52697973
Si       0.93221525       3.67298145      -0.43946750
Si       5.98285955       8.07797758       1.25789473
Si       2.18977594       1.48816799       2.23061239
Si       4.69572922       4.37857130       5.88943095
Si      -1.13546193       4.55283728       5.34290673
Si       0.31562120       2.83467437       1.67398490
Si       2.32747259       4.85776985       6.32913185
Si       0.58274014       8.18317047       4.38491461
Si       6.38726674       3.99440049       4.01572299
Si       2.31340950       6.65706985       1.14707934
Si       4.33711726       9.61954001       2.17163515
Si       5.56725567      10.29243244      -0.94458640
Si       8.66756397       4.07816724       4.79600953
Si      -0.08582078       6.63176105       1.56540673
Si      -0.85393463       6.72052225       6.23868131
Si      -1.78116336       1.64036605       1.34232203
Si       5.06533520       6.86323832       5.99906890
Si       4.01279544       1.99308074       5.71576002
Si      -0.03842149       4.68609387       3.15902735
Si       1.60257875       5.98865330       4.40118913
Si       4.25611216       1.57497607       1.01878947
Si       5.77178975       5.99599747       2.64553440
Si       3.49725688       6.44555583       3.12692557
24
Lattice="8.303296827792161 2.645303870891118 -0.39351547475304777 -1.9254370229066198 7.429786820521593 -0.07427297383666535 -0.4121927562329738 -0.3566091950951971 6.933000734095158" Properties=species:S:1:pos:R:3 unique_starting_index=90 config_type=initial n_minim_iter=20 stress="0.00017485972520973642 5.6278342771800797e-05 -0.00016792706190742968 5.6278342771800797e-05 -0.00060619702738518 -0.0009875050633674565 -0.00016792706190742968 -0.0009875050633674565 0.00023987519419872418" pbc="T T T"
Si       5.86009587       1.00959716       4.54639020
Si       0.91505375       3.65355470      -0.43455752
Si       5.96326014       8.06058870       1.26183044
Si       2.16968305       1.45905780       2.22880550
Si       4.68860806       4.35596580       5.89530610
Si      -1.16500720       4.52235125       5.31565571
Si       0.31348479       2.84166180       1.69236409
Si       2.32336027       4.84003809       6.30971175
Si       0.55943831       8.15806827       4.39170871
Si       6.37843775       3.97365450       4.01083978
Si       2.30058436       6.66093025       1.14579363
Si       4.30777266       9.60100184       2.17019679
Si       5.56029449      10.28971778      -0.93741544
Si       8.64590941       4.04382031       4.79699574
Si      -0.11738299       6.64071088       1.54310469
Si      -0.85876217       6.69262711       6.17524107
Si      -1.77379472       1.64933202       1.32937623
Si       5.04908207       6.84154182       5.98794748
Si       4.02899128       1.96817570       5.73890504
Si      -0.04499174       4.70215412       3.14971725
Si       1.58508877       5.97335065       4.40068343
Si       4.26386185       1.56411729       1.04666700
Si       5.77073853       5.98811751       2.64853800
Si       3.48476910       6.45451870       3.11553083
24
Lattice="8.298940531319415 2.638233931237063 -0.38218713309518043 -1.9355760537479119 7.445165777305076 -0.06844197257623351 -0.4050280972687095 -0.34993155656099656 6.919886245160056" Properties=species:S:1:pos:R:3 unique_starting_index=90 config_type=initial n_minim_iter=21 stress="-4.726670643519182e-06 -0.00012202992113069592 0.00018421104705517864 -0.00012202992113069592 -5.873645487531604e-05 4.622235394202048e-05 0.00018421104705517864 4.622235394202048e-05 -4.3460715061122036e-05" pbc="T T T"
Si       5.86972536       1.01432494       4.55300157
Si       0.90687571       3.65219032      -0.42701711
Si       5.95466712       8.07014159       1.27425857
Si       2.15974436       1.45129612       2.22874139
Si       4.68612357       4.36054069       5.89713837
Si      -1.17500473       4.51992109       5.30371131
Si       0.31353644       2.85203298       1.70347658
Si       2.32203833       4.84952475       6.30278654
Si       0.55102116       8.16695404       4.40222112
Si       6.37099778       3.97876642       4.00842828
Si       2.29441790       6.67510685       1.14901840
Si       4.29698009       9.61501227       2.18228767
Si       5.56000071      10.30805268      -0.91784386
Si       8.63445496       4.04346203       4.79474229
Si      -0.13069876       6.65527455       1.53533958
Si      -0.85836614       6.69864900       6.14698925
Si      -1.76885877       1.65889109       1.32451134
Si       5.03992989       6.85138109       5.98755695
Si       4.03531198       1.96729085       5.74518822
Si      -0.04702864       4.72257602       3.14973097
Si       1.58012364       5.98306580       4.40149484
Si       4.26516683       1.56440207       1.06093651
Si       5.77136678       6.00100270       2.65735189
Si       3.48081824       6.47565182       3.11800153
