22
Lattice="5.25703296536496 -1.942378520677134 -0.21674292805442055 -3.492322812203986 8.915755327989256 -4.287635575717948 -0.05832674432247826 -8.071035177383102 15.553322251270693" Properties=species:S:1:pos:R:3 unique_starting_index=51 config_type=initial n_minim_iter=1 energy=-3579.8818671376985 free_energy=-3579.8818671376985 pbc="T T T"
Si       1.32802801       4.56833248       0.03574487
Si       0.01734441      -1.38121984       8.43128150
Si      -0.45758609       5.80460808      -3.97042445
Si      -0.46790164       3.48695241       1.50999455
Si       0.12439779      -0.61492339       6.08780404
Si       3.08373280      -1.95006291       5.72237566
Si      -1.17619409       1.02296258       0.54516963
Si      -0.06294480       2.25055202      -1.22690337
Si       2.06693378      -3.78826202       7.20452538
Si       2.37902210      -3.54970519      11.65798130
Si      -1.72035148       0.21195282       9.28855392
Si       3.18104581      -0.94807452       3.57257767
Si      -0.04728779       1.24765893       2.65871589
Si       3.08883234      -6.59975749      13.78150487
Si       1.43371784      -5.48234425      12.52673619
Si       1.75459826       2.71700787       1.78683918
Si       1.31737377      -0.65814311       2.10336821
Si       2.18950364      -0.50425947       7.34128336
Si       1.55085767      -3.05506141       9.46504447
Si       1.63279582      -3.57034398       4.30077717
Si       2.19246714       0.77930741       0.34695595
Si       3.40906209      -3.24385714       2.69418295
22
Lattice="5.277559877416086 -1.948461066427315 -0.21690906310333227 -3.508364427363417 8.937414180478386 -4.293154663352508 -0.05932417261405363 -8.097720301972522 15.559218077318052" Properties=species:S:1:pos:R:3 unique_starting_index=51 config_type=initial n_minim_iter=2 stress="0.0019623201457069075 -0.00015593926710715238 0.0001360303582548394 -0.00015593926710715238 0.0017777796290269917 7.518484299211375e-05 0.0001360303582548394 7.518484299211375e-05 0.0024552909860817494" pbc="T T T"
Si       1.33018004       4.57608245       0.03186777
Si       0.01534247      -1.39003687       8.43225984
Si      -0.46078884       5.81938837      -3.97494784
Si      -0.47157589       3.49262680       1.50737962
Si       0.12290832      -0.62078744       6.08827396
Si       3.09395875      -1.95903262       5.72350054
Si      -1.18102994       1.02531602       0.54504290
Si      -0.06382795       2.25565508      -1.22862912
Si       2.07473201      -3.80130607       7.20730752
Si       2.38705361      -3.56530255      11.65904759
Si      -1.72961538       0.20598137       9.28843021
Si       3.19180163      -0.95424001       3.57223563
Si      -0.04847929       1.24797504       2.65786338
Si       3.09911545      -6.62386674      13.78462984
Si       1.43690396      -5.50449482      12.53147767
Si       1.75881789       2.71930473       1.78452341
Si       1.32144835      -0.66144926       2.10345449
Si       2.19630361      -0.51076020       7.34061828
Si       1.55514017      -3.06809103       9.46693992
Si       1.63925087      -3.58127468       4.30273568
Si       2.20101046       0.77853809       0.34545676
Si       3.42240061      -3.25365609       2.69546706
22
Lattice="5.296098674137435 -1.9506833411316742 -0.21741741067794684 -3.521294713357595 8.943023066901626 -4.2769714785728565 -0.07087887631499383 -8.12331837272481 15.467078639816066" Properties=species:S:1:pos:R:3 unique_starting_index=51 config_type=initial n_minim_iter=3 stress="0.0017586482887115274 -0.0007892643081829677 -0.0004390773324190868 -0.0007892643081829677 -0.0007745617017590263 -0.000913678224295095 -0.0004390773324190868 -0.000913678224295095 -0.0029474039907131165" pbc="T T T"
Si       1.32905652       4.57155167       0.02093527
Si       0.00653118      -1.40548641       8.37647189
Si      -0.46166974       5.82717641      -3.95978372
Si      -0.47604244       3.48794334       1.48990037
Si       0.11513548      -0.63300755       6.04752282
Si       3.09730502      -1.96944123       5.68687287
Si      -1.18539302       1.02563830       0.54170297
Si      -0.06420534       2.25655082      -1.22481925
Si       2.07791343      -3.81270828       7.16490541
Si       2.38882391      -3.58430806      11.57933855
Si      -1.74540018       0.18763449       9.22368520
Si       3.19717325      -0.96394089       3.54534676
Si      -0.05088501       1.24162242       2.63731500
Si       3.09768728      -6.64904324      13.69550454
Si       1.42769996      -5.53424286      12.45877467
Si       1.75884996       2.71038003       1.76581776
Si       1.32180341      -0.66533051       2.08875819
Si       2.19833030      -0.52256310       7.28693489
Si       1.55162588      -3.08348036       9.40613004
Si       1.64206200      -3.58958141       4.27737952
Si       2.21104882       0.77193000       0.33810166
Si       3.43224873      -3.25948249       2.67928582
22
Lattice="5.26929232351567 -1.9401206762204413 -0.219185084332225 -3.479238642424332 8.956290269754259 -4.277199789390384 -0.09393996904223999 -8.13160865647176 15.494997683528625" Properties=species:S:1:pos:R:3 unique_starting_index=51 config_type=initial n_minim_iter=4 stress="-0.0006001407494988271 0.001916180417977777 -0.0008461113378807659 0.001916180417977777 0.0010221880401710172 -0.0005915584691326383 -0.0008461113378807659 -0.0005915584691326383 -0.0005616215011172053" pbc="T T T"
Si       1.33315171       4.58788603       0.02571173
Si       0.00234933      -1.39930777       8.39598770
Si      -0.44151561       5.85046425      -3.96864922
Si      -0.45767698       3.50002143       1.49563438
Si       0.10739085      -0.62794221       6.06347337
Si       3.07620068      -1.95368365       5.70778391
Si      -1.17544459       1.02956053       0.54646127
Si      -0.05804276       2.26171346      -1.22605189
Si       2.06412902      -3.80375543       7.18518492
Si       2.38469132      -3.56618460      11.59504864
Si      -1.73606209       0.18999391       9.24094944
Si       3.17843457      -0.95486068       3.55190728
Si      -0.04112993       1.24782340       2.64813187
Si       3.06546080      -6.64453185      13.71146731
Si       1.39623000      -5.55284244      12.49834196
Si       1.75628900       2.71996258       1.77726829
Si       1.30863249      -0.65731351       2.09433428
Si       2.19724123      -0.49670411       7.30086436
Si       1.53655117      -3.06813664       9.42742658
Si       1.62329017      -3.59279384       4.28170438
Si       2.21784517       0.76906311       0.33718959
Si       3.40728799      -3.25635834       2.68320933
22
Lattice="5.277512349710668 -1.9609942833472744 -0.2098559958929901 -3.5331605985795793 8.941311521260834 -4.275190087328682 -0.013050794024932772 -8.075498011413734 15.509570057604682" Properties=species:S:1:pos:R:3 unique_starting_index=51 config_type=initial n_minim_iter=5 stress="-0.00017155975418415385 -0.0003912631661460083 0.0006908228401564553 -0.0003912631661460083 -0.000549805435302509 0.00016197550374668872 0.0006908228401564553 0.00016197550374668872 6.241614075600328e-05" pbc="T T T"
Si       1.30871959       4.56885874       0.03961521
Si       0.03143572      -1.37609713       8.41108297
Si      -0.47953131       5.83447168      -3.96804966
Si      -0.46823095       3.49777766       1.50480965
Si       0.12384235      -0.61346542       6.07649137
Si       3.09879252      -1.94809356       5.72765413
Si      -1.17759003       1.03559322       0.54776042
Si      -0.07372315       2.25312348      -1.22321730
Si       2.10376459      -3.78477142       7.20017801
Si       2.43872085      -3.54077143      11.61561959
Si      -1.71176006       0.21768896       9.25432015
Si       3.19072946      -0.96115070       3.56540206
Si      -0.03806528       1.25070280       2.65844409
Si       3.13425453      -6.61227570      13.72989505
Si       1.45325018      -5.52192571      12.52218921
Si       1.74686851       2.70503038       1.79390937
Si       1.31425288      -0.65564228       2.10125421
Si       2.22161886      -0.48464523       7.31951016
Si       1.57607401      -3.04137302       9.44576212
Si       1.65105165      -3.58287341       4.28599045
Si       2.22137168       0.75113893       0.34424989
Si       3.42875930      -3.25842416       2.69090727
22
Lattice="5.291090107567153 -1.9933378982835324 -0.2563681968470149 -3.549236915738617 8.962213870694091 -4.223311581103967 -0.0885596785878162 -8.03989965538015 15.496035890971084" Properties=species:S:1:pos:R:3 unique_starting_index=51 config_type=initial n_minim_iter=6 stress="0.0002628915319533833 -0.0012761365631216322 -0.003182315394885037 -0.0012761365631216322 0.0006244665747631009 0.002004112342791112 -0.003182315394885037 0.002004112342791112 0.0011089753233578027" pbc="T T T"
Si       1.27411885       4.56254089       0.04192726
Si      -0.02781242      -1.35014305       8.41223251
Si      -0.47585462       5.85713879      -3.96140084
Si      -0.49377905       3.51801131       1.51843388
Si       0.06744480      -0.60036536       6.08292506
Si       3.05713185      -1.93951155       5.71696765
Si      -1.17783518       1.05530197       0.56742686
Si      -0.09234565       2.25313436      -1.20854697
Si       2.07453670      -3.76980396       7.18372145
Si       2.38788202      -3.53073489      11.58777783
Si      -1.78144839       0.25228437       9.26207002
Si       3.15951813      -0.97844462       3.53882714
Si      -0.06100114       1.25686923       2.67241640
Si       3.07254679      -6.60557920      13.67845212
Si       1.38717434      -5.48972958      12.52186340
Si       1.72457275       2.68458125       1.79919962
Si       1.28811497      -0.65375582       2.09448907
Si       2.16871629      -0.46819357       7.29168453
Si       1.51323806      -3.00453250       9.43742952
Si       1.62847967      -3.58954584       4.26212260
Si       2.24930999       0.71749306       0.32408896
Si       3.42216770      -3.27370059       2.65272175
22
Lattice="5.296664039122249 -1.9972175052624084 -0.22728104150284523 -3.5737568150155705 8.993014400580602 -4.26925305475069 -0.02312366104072563 -8.113634348214724 15.513710051932309" Properties=species:S:1:pos:R:3 unique_starting_index=51 config_type=initial n_minim_iter=7 stress="0.0010134041980356162 -0.0001624697533024424 -0.0009480173857413707 -0.0001624697533024424 7.28361677482582e-05 -0.00017273987021651705 -0.0009480173857413707 -0.00017273987021651705 0.0021593179249397385" pbc="T T T"
Si       1.26447705       4.56062671       0.02691532
Si       0.00399495      -1.38432828       8.40941305
Si      -0.49035615       5.90263013      -3.99474887
Si      -0.48559415       3.52486093       1.50021083
Si       0.07936043      -0.63077685       6.08433641
Si       3.07584470      -1.95674738       5.74506075
Si      -1.16763188       1.06448231       0.56472087
Si      -0.11335375       2.26105212      -1.20981040
Si       2.11236939      -3.79603805       7.20627547
Si       2.45530527      -3.59226090      11.59512832
Si      -1.74306714       0.21149921       9.23265131
Si       3.16885497      -1.00584120       3.55030576
Si      -0.04732595       1.24272654       2.67312939
Si       3.14125892      -6.67996108      13.68878621
Si       1.44123084      -5.53611349      12.55500823
Si       1.73869177       2.65817658       1.80125685
Si       1.28435569      -0.66074469       2.10329531
Si       2.19955182      -0.49469106       7.28038620
Si       1.54661294      -3.02845521       9.45193490
Si       1.63900361      -3.61725995       4.27584385
Si       2.28634248       0.69409348       0.32487940
Si       3.43275884      -3.29009767       2.67265951
22
Lattice="5.294100939133257 -2.009300368051074 -0.21251473426925788 -3.588606510922493 9.033854787918784 -4.247585044944649 0.028145343503370144 -8.133836331466103 15.428018225269648" Properties=species:S:1:pos:R:3 unique_starting_index=51 config_type=initial n_minim_iter=8 stress="0.0005249154004734274 -7.128872934337412e-05 0.00034258696562914194 -7.128872934337412e-05 0.0017157410927772859 0.0012305551239746068 0.00034258696562914194 0.0012305551239746068 -0.0004943826305258309" pbc="T T T"
Si       1.25879300       4.58048980       0.03592096
Si       0.02975568      -1.37930003       8.36656499
Si      -0.50201439       5.93422165      -3.97328074
Si      -0.47977188       3.54937650       1.49734950
Si       0.09318592      -0.62826528       6.05610906
Si       3.09140870      -1.95779495       5.72588175
Si      -1.16065359       1.07436899       0.56315220
Si      -0.12327009       2.27150986      -1.19956627
Si       2.13612465      -3.80322765       7.17473150
Si       2.49582693      -3.60058680      11.54055048
Si      -1.71241731       0.22510977       9.17778418
Si       3.17531975      -1.01192865       3.54204728
Si      -0.03935943       1.25101956       2.66621213
Si       3.18767349      -6.69941949      13.61739866
Si       1.48271121      -5.53987307      12.49715678
Si       1.74636553       2.66354696       1.80371037
Si       1.28602480      -0.66161659       2.09686827
Si       2.21841181      -0.48447016       7.24756437
Si       1.57297868      -3.02476161       9.40971334
Si       1.64745478      -3.63239713       4.25466269
Si       2.29998489       0.69014262       0.33074824
Si       3.43836302      -3.30509143       2.66324023
22
Lattice="5.288803910156679 -2.013382257381185 -0.19578396552355445 -3.5986961558418527 9.05726425670035 -4.288564534687415 0.05880777922611851 -8.204292548563329 15.449116996659525" Properties=species:S:1:pos:R:3 unique_starting_index=51 config_type=initial n_minim_iter=9 stress="-0.0008737967966919623 7.018306608789342e-05 0.0006652214514519274 7.018306608789342e-05 -0.0003962083689508858 -0.0006045355489943982 0.0006652214514519274 -0.0006045355489943982 -0.0011282502780041834" pbc="T T T"
Si       1.24788649       4.57627015       0.01588316
Si       0.04199869      -1.41591548       8.36397915
Si      -0.50651110       5.96316459      -4.00334017
Si      -0.47548434       3.55226547       1.48361626
Si       0.09409690      -0.66086215       6.05464668
Si       3.09734981      -1.98615607       5.73194376
Si      -1.15014014       1.07657688       0.56265144
Si      -0.13452816       2.27981260      -1.20787387
Si       2.14776542      -3.83354661       7.18906637
Si       2.51762470      -3.66358756      11.54779853
Si      -1.69484393       0.18716112       9.15644894
Si       3.17151941      -1.03967728       3.54908132
Si      -0.03732219       1.23679446       2.66625374
Si       3.21377880      -6.76867337      13.62769092
Si       1.50719701      -5.58516578      12.51872363
Si       1.75232876       2.63641878       1.79511191
Si       1.28194215      -0.67408956       2.09971001
Si       2.22005178      -0.50856481       7.24328557
Si       1.58177164      -3.05883377       9.42142608
Si       1.64404364      -3.65709422       4.26843742
Si       2.32029911       0.67754684       0.33243559
Si       3.43749344      -3.32260441       2.67521582
22
Lattice="5.296348256824943 -2.0017667067983607 -0.1691756258720929 -3.61007879612708 9.048921071955919 -4.319756056155984 0.10850148848994647 -8.2338488007289 15.444468035277565" Properties=species:S:1:pos:R:3 unique_starting_index=51 config_type=initial n_minim_iter=10 stress="-0.000652775064104752 0.0011964584398915757 0.0006837822547563861 0.0011964584398915757 -0.0032714715845911318 -0.001234758642917206 0.0006837822547563861 -0.001234758642917206 -0.0013605783078203019" pbc="T T T"
Si       1.24374081       4.56514064       0.00207260
Si       0.06980655      -1.43387886       8.35149970
Si      -0.49482585       5.98177343      -4.03172369
Si      -0.44689930       3.56423059       1.48551152
Si       0.09707232      -0.69139821       6.04828947
Si       3.12598579      -1.99896646       5.72699888
Si      -1.12263435       1.07520440       0.57118959
Si      -0.14795394       2.28803174      -1.21780288
Si       2.17290116      -3.83237606       7.19876480
Si       2.56926343      -3.70165151      11.54245506
Si      -1.65995299       0.16934479       9.11145413
Si       3.17469737      -1.06555946       3.56311841
Si      -0.02661682       1.22366619       2.68079601
Si       3.26720558      -6.79626086      13.60554240
Si       1.55646799      -5.58752534      12.53423481
Si       1.78437532       2.58343923       1.79393788
Si       1.28124932      -0.68430529       2.10055915
Si       2.23266096      -0.48544799       7.24343271
Si       1.60319856      -3.05674025       9.43496046
Si       1.62800533      -3.67079172       4.27767942
Si       2.38545296       0.66238051       0.35002506
Si       3.44286693      -3.32888504       2.67985001
22
Lattice="5.28102236142778 -2.033113644702538 -0.16263046936079456 -3.63163632650366 9.123259934165088 -4.336831384298927 0.14997146080286333 -8.30658220241348 15.461030200450319" Properties=species:S:1:pos:R:3 unique_starting_index=51 config_type=initial n_minim_iter=11 stress="-0.0010681334813707696 -0.0004872818767584479 0.000199866076331651 -0.0004872818767584479 -0.0005364385552622445 -0.0011830964349534591 0.000199866076331651 -0.0011830964349534591 -0.00026204831692019253" pbc="T T T"
Si       1.21663591       4.58898216      -0.00696735
Si       0.07974163      -1.45388596       8.35551479
Si      -0.51159438       6.02705632      -4.04671050
Si      -0.44810660       3.58972727       1.48732651
Si       0.09969363      -0.70960989       6.05080695
Si       3.12323063      -2.03270478       5.73123254
Si      -1.11216680       1.08315282       0.57331954
Si      -0.15653654       2.30734631      -1.22561598
Si       2.17975299      -3.86955162       7.20918859
Si       2.58140351      -3.74926281      11.54946382
Si      -1.64926891       0.16876041       9.10834245
Si       3.16191736      -1.09338079       3.56708153
Si      -0.02948858       1.22800106       2.68613842
Si       3.28579719      -6.86873575      13.61343372
Si       1.57902770      -5.64730939      12.55106934
Si       1.77126359       2.57831007       1.79164954
Si       1.28001578      -0.69944767       2.10135866
Si       2.22477838      -0.49309416       7.25071516
Si       1.61230710      -3.09104339       9.44833894
Si       1.62932995      -3.70956691       4.28565082
Si       2.38717113       0.65537387       0.35559757
Si       3.44065845      -3.37079122       2.68516873
22
Lattice="5.283658248413349 -2.032366413576128 -0.16268423803804827 -3.633447462745138 9.11726681383356 -4.316381336965367 0.16167676918676224 -8.269328239526835 15.44347413837377" Properties=species:S:1:pos:R:3 unique_starting_index=51 config_type=initial n_minim_iter=12 stress="0.0002959418659952392 -0.0005373381604725918 -0.0003664887379454044 -0.0005373381604725918 0.0010601642208459766 0.0003536264442008153 -0.0003664887379454044 0.0003536264442008153 0.0005857683807687278" pbc="T T T"
Si       1.21501527       4.59804864       0.00190968
Si       0.08677782      -1.42915144       8.35443256
Si      -0.50485827       6.01771159      -4.03607183
Si      -0.43157652       3.59924489       1.50776744
Si       0.10524389      -0.69813233       6.05043612
Si       3.12601933      -2.01657094       5.73176982
Si      -1.10044727       1.08049557       0.57738794
Si      -0.15509492       2.30944223      -1.22386041
Si       2.18106486      -3.84475669       7.20453068
Si       2.59315636      -3.71265711      11.54138639
Si      -1.64543856       0.20319247       9.10882020
Si       3.16035672      -1.08524325       3.56600516
Si      -0.02404630       1.23839854       2.69625182
Si       3.29410929      -6.83187035      13.59601800
Si       1.59099848      -5.62131111      12.54239113
Si       1.77622192       2.57821103       1.80085223
Si       1.28600593      -0.69653316       2.09929368
Si       2.22832376      -0.45880851       7.25768475
Si       1.62081696      -3.06428019       9.45101102
Si       1.62447238      -3.70553411       4.27921206
Si       2.40181590       0.66028830       0.36664507
Si       3.44309075      -3.37135211       2.67876825
22
Lattice="5.280332817950043 -2.03753488746989 -0.1322660376075159 -3.6572373058891516 9.137355173218536 -4.312661063931687 0.26320286102885526 -8.256192197048675 15.412090762224569" Properties=species:S:1:pos:R:3 unique_starting_index=51 config_type=initial n_minim_iter=13 stress="0.0018212194449055284 -0.0004586860327646278 -0.000890894491460336 -0.0004586860327646278 0.003141391619033695 0.00245047708101802 -0.000890894491460336 0.00245047708101802 0.0019101648358302253" pbc="T T T"
Si       1.19253105       4.62790575      -0.00091040
Si       0.13635949      -1.40146049       8.34505084
Si      -0.49582272       6.02695019      -4.04318774
Si      -0.36635097       3.62877167       1.55626480
Si       0.13797669      -0.70819583       6.04378263
Si       3.13843788      -2.00079538       5.75631884
Si      -1.04341702       1.07187477       0.58247727
Si      -0.17076023       2.32985323      -1.22518327
Si       2.20385113      -3.80954897       7.20818970
Si       2.67654597      -3.68375974      11.52527341
Si      -1.60063409       0.26286955       9.08060501
Si       3.15071267      -1.09724112       3.56960480
Si       0.00202920       1.25092243       2.72320406
Si       3.37435963      -6.81997046      13.56167717
Si       1.68435994      -5.60654951      12.53318495
Si       1.79889256       2.54994463       1.82229427
Si       1.30536141      -0.70377193       2.09697414
Si       2.24934862      -0.39823903       7.26712798
Si       1.67483045      -3.03315761       9.47327413
Si       1.61100867      -3.73344682       4.27744377
Si       2.47187355       0.66186711       0.40736969
Si       3.45043020      -3.40192146       2.68174624
22
Lattice="5.276055432651967 -2.026093151136054 -0.09679163488936693 -3.6643161804632496 9.142616235076366 -4.369323910852221 0.32140271798208114 -8.33562562381133 15.414862256968648" Properties=species:S:1:pos:R:3 unique_starting_index=51 config_type=initial n_minim_iter=14 stress="0.00015207588148492558 0.00020243581808233527 -0.0005920362740502058 0.00020243581808233527 -0.0009939874989047036 -0.000733812605487143 -0.0005920362740502058 -0.000733812605487143 -0.000637251272949186" pbc="T T T"
Si       1.19142850       4.63141003      -0.03990619
Si       0.16488411      -1.43951662       8.33064596
Si      -0.49172663       6.03070463      -4.07649235
Si      -0.32994393       3.60672607       1.55479206
Si       0.16606956      -0.75183644       6.02583877
Si       3.13705998      -2.01613888       5.78490670
Si      -1.01158827       1.05155861       0.56267211
Si      -0.18300061       2.34130868      -1.22830096
Si       2.20800898      -3.83264996       7.21412877
Si       2.73149823      -3.74037518      11.52175906
Si      -1.57451073       0.22450308       9.05031724
Si       3.15167563      -1.12247149       3.57016716
Si       0.01743342       1.22558910       2.71030701
Si       3.43063186      -6.89613504      13.58019471
Si       1.74932325      -5.65839069      12.51371684
Si       1.81676334       2.53838493       1.81828665
Si       1.32092264      -0.71382555       2.09468476
Si       2.26323338      -0.44759999       7.24698691
Si       1.71089390      -3.08235053       9.47680465
Si       1.60746782      -3.76740435       4.29078584
Si       2.49887950       0.66650357       0.41927137
Si       3.45013446      -3.41803317       2.70709363
22
Lattice="5.268728603526457 -2.0465036258362 -0.05677174117354256 -3.7064419699169577 9.200309950372064 -4.39489259342476 0.4483094974743609 -8.394781147135477 15.389266166475753" Properties=species:S:1:pos:R:3 unique_starting_index=51 config_type=initial n_minim_iter=15 stress="-0.0009004645855253512 -0.00010704080841946567 0.0010912437994692163 -0.00010704080841946567 -0.0008272890142971331 -0.0006724508933225369 0.0010912437994692163 -0.0006724508933225369 -6.118139741509311e-05" pbc="T T T"
Si       1.16158108       4.64983243      -0.05225036
Si       0.21711835      -1.44397902       8.31492944
Si      -0.50931643       6.08409158      -4.09982889
Si      -0.29509992       3.63675419       1.57013985
Si       0.18834957      -0.77675975       6.01232261
Si       3.16026978      -2.03039063       5.80642823
Si      -0.97044477       1.05477636       0.56199721
Si      -0.20957966       2.36632893      -1.22769511
Si       2.25248079      -3.84385443       7.22156717
Si       2.84371367      -3.78189489      11.50680982
Si      -1.51504333       0.23442653       9.00296717
Si       3.15226664      -1.16623033       3.58459469
Si       0.03732536       1.21800888       2.72057790
Si       3.53899630      -6.96322159      13.55447182
Si       1.85307231      -5.69687303      12.51244063
Si       1.83502470       2.50956872       1.83797607
Si       1.32479412      -0.72209186       2.09508638
Si       2.29150372      -0.42891052       7.23780732
Si       1.76806763      -3.08547809       9.48600867
Si       1.60705277      -3.81387597       4.29081118
Si       2.56611028       0.64021176       0.44411469
Si       3.45558383      -3.45541469       2.71802745
22
Lattice="5.260579891425132 -2.029340662334033 -0.03649180067484942 -3.6862892355902717 9.203201004068145 -4.368121957565018 0.48707408712041234 -8.372606217791388 15.312409050847714" Properties=species:S:1:pos:R:3 unique_starting_index=51 config_type=initial n_minim_iter=16 stress="-0.0019932055241713488 0.0009351436716873863 0.0006934941208910415 0.0009351436716873863 -4.1922617870357094e-05 0.00023798312559657225 0.0006934941208910415 0.00023798312559657225 -0.0013544073523106142" pbc="T T T"
Si       1.18999836       4.68147862      -0.05102430
Si       0.23054138      -1.38654731       8.29585056
Si      -0.48562442       6.07045155      -4.07462712
Si      -0.25499256       3.64169358       1.61110928
Si       0.19993915      -0.75020494       5.97233969
Si       3.17309279      -2.00493881       5.79903109
Si      -0.94092991       1.01873204       0.53536371
Si      -0.17951821       2.38648317      -1.21301353
Si       2.24643871      -3.82254187       7.18865735
Si       2.92429778      -3.73125806      11.47049173
Si      -1.48854069       0.28040942       8.99454251
Si       3.17064345      -1.17223657       3.59785590
Si       0.04624058       1.20818829       2.70249704
Si       3.57570187      -6.93053295      13.52589970
Si       1.90171991      -5.69475156      12.41874521
Si       1.86030598       2.57521614       1.87244904
Si       1.34646288      -0.69809340       2.07879353
Si       2.30440746      -0.37804436       7.23635671
Si       1.80113500      -3.06123158       9.45772204
Si       1.58532409      -3.82612309       4.26063539
Si       2.59049730       0.66413765       0.46371686
Si       3.43451754      -3.44059837       2.71325950
22
Lattice="5.288794798025971 -2.0472499518959584 -0.02537257346684642 -3.737127022070492 9.223185118008152 -4.368984883685313 0.5452021376752998 -8.376233680532996 15.297576905234491" Properties=species:S:1:pos:R:3 unique_starting_index=51 config_type=initial n_minim_iter=17 stress="0.002295519503830787 -0.0007901800317529656 -0.0006193227331959722 -0.0007901800317529656 0.00021862567649914383 -8.378092827260414e-05 -0.0006193227331959722 -8.378092827260414e-05 0.001603521751451334" pbc="T T T"
Si       1.16486639       4.68626496      -0.06762268
Si       0.23240681      -1.35290238       8.29452499
Si      -0.48371150       6.08206028      -4.09227465
Si      -0.23648744       3.65470141       1.64581534
Si       0.18959749      -0.75585958       5.95774886
Si       3.18548337      -2.00704612       5.81894127
Si      -0.90634386       1.00041002       0.52584862
Si      -0.18472234       2.40735556      -1.20585424
Si       2.26795036      -3.81142192       7.18859977
Si       3.01103871      -3.74177903      11.45685559
Si      -1.49274192       0.31551249       8.98860719
Si       3.17578068      -1.21478552       3.60002917
Si       0.04549730       1.19275739       2.70533382
Si       3.64018123      -6.95404957      13.50650270
Si       1.97258579      -5.69828285      12.39551676
Si       1.87216256       2.55822623       1.89797526
Si       1.36462565      -0.69857153       2.07310825
Si       2.29847889      -0.35444802       7.23119218
Si       1.82789663      -3.04665155       9.47230479
Si       1.56996529      -3.86211009       4.24691469
Si       2.66686412       0.64344385       0.48619965
Si       3.44435034      -3.46200127       2.70886739
22
Lattice="5.275645688557548 -2.056474210763369 -0.028907678769812272 -3.7279659263348193 9.256200454214735 -4.345016584679612 0.5433996603105465 -8.386546786543724 15.252927891784458" Properties=species:S:1:pos:R:3 unique_starting_index=51 config_type=initial n_minim_iter=18 stress="0.0010562329696105171 -0.0008676123669668879 -0.0010770438290717724 -0.0008676123669668879 -0.0009960995671186713 0.0009720154014623519 -0.0010770438290717724 0.0009720154014623519 0.0010205291052761004" pbc="T T T"
Si       1.15185587       4.70128511      -0.05603407
Si       0.20667873      -1.29675927       8.28047369
Si      -0.46660180       6.09460519      -4.07988742
Si      -0.26831589       3.67816431       1.64768402
Si       0.16484884      -0.73071872       5.92944648
Si       3.17819261      -2.00844495       5.82308201
Si      -0.90724900       0.97801592       0.49306090
Si      -0.13849759       2.43190626      -1.19347858
Si       2.28507110      -3.81873582       7.17742362
Si       3.03748106      -3.74913225      11.42442631
Si      -1.49624505       0.34263204       9.00282031
Si       3.16821813      -1.22806964       3.58851690
Si       0.03108444       1.18790064       2.67107815
Si       3.62859480      -6.96622457      13.47095139
Si       1.99663286      -5.70671869      12.32887718
Si       1.84261351       2.58451637       1.91512339
Si       1.39327336      -0.69655814       2.07195996
Si       2.26788507      -0.34792020       7.22073955
Si       1.83125419      -3.04670125       9.45924739
Si       1.54921771      -3.88993184       4.21293669
Si       2.66654538       0.64949046       0.50901197
Si       3.42143554      -3.46521452       2.69963405
22
Lattice="5.257499650309131 -2.0624542187731856 0.003068663418563845 -3.728682225054867 9.322147316359436 -4.367218034415636 0.6124483571526963 -8.476740309742494 15.213801488862234" Properties=species:S:1:pos:R:3 unique_starting_index=51 config_type=initial n_minim_iter=19 stress="-0.0004623201358026099 8.01383720682272e-05 -0.00032465720119087576 8.01383720682272e-05 -0.0008870980833686421 0.00042144501750668154 -0.00032465720119087576 0.00042144501750668154 5.138564868345257e-05" pbc="T T T"
Si       1.13898630       4.73609029      -0.06835685
Si       0.23431114      -1.29860460       8.25364221
Si      -0.45728461       6.13924916      -4.09252297
Si      -0.24704417       3.70571759       1.64997334
Si       0.18035897      -0.75191101       5.90066884
Si       3.18561637      -2.02723040       5.83261279
Si      -0.87825740       0.96500406       0.47280453
Si      -0.12714434       2.46624634      -1.19495488
Si       2.30764490      -3.84755925       7.17430360
Si       3.10431584      -3.79810683      11.39655600
Si      -1.45492597       0.34195129       8.96798811
Si       3.16459805      -1.25789785       3.59097647
Si       0.04297138       1.17977396       2.65483417
Si       3.68063897      -7.04582980      13.44227640
Si       2.06643261      -5.77103009      12.28800585
Si       1.84754667       2.58805244       1.92249535
Si       1.41289943      -0.70854024       2.07017643
Si       2.27516214      -0.34705581       7.20649402
Si       1.87169060      -3.08032307       9.45358269
Si       1.53462826      -3.94374090       4.20431599
Si       2.69824127       0.65609456       0.53916021
Si       3.41096136      -3.49776980       2.71037614
22
Lattice="5.229283503246894 -2.0920663098500083 0.050987967954626415 -3.740016352761356 9.486740639364555 -4.4057504962935905 0.7190754040535456 -8.687347941275105 15.138464636733072" Properties=species:S:1:pos:R:3 unique_starting_index=51 config_type=initial n_minim_iter=20 stress="-0.0016507081589563117 0.0011085875463879844 0.0010999028824715716 0.0011085875463879844 0.0010608847349439575 -0.0010264145313022615 0.0010999028824715716 -0.0010264145313022615 -0.0016033310108392823" pbc="T T T"
Si       1.10385124       4.80658410      -0.08265502
Si       0.26933198      -1.31355218       8.19593334
Si      -0.45385465       6.24693030      -4.11319088
Si      -0.25372265       3.76772769       1.62210007
Si       0.20275743      -0.79095014       5.84597476
Si       3.18795512      -2.07202671       5.84369552
Si      -0.84894298       0.95803872       0.42179166
Si      -0.10311980       2.53638744      -1.19755072
Si       2.34885297      -3.93297076       7.16849605
Si       3.20427432      -3.91972276      11.33489559
Si      -1.39714242       0.32673955       8.90877205
Si       3.16485416      -1.31942701       3.59254199
Si       0.05878805       1.16132922       2.60675702
Si       3.76680599      -7.24465554      13.38156323
Si       2.17317615      -5.93394890      12.20582487
Si       1.83624233       2.60848328       1.92702117
Si       1.44234210      -0.74344614       2.06882025
Si       2.28315086      -0.37258798       7.16762111
Si       1.94289679      -3.17306923       9.43029381
Si       1.51650337      -4.05581615       4.18508572
Si       2.73501302       0.66696935       0.58557486
Si       3.40184349      -3.57229197       2.73036749
22
Lattice="5.234822562366557 -2.106613906436019 0.04208954448564876 -3.7626827076979894 9.48037732099686 -4.386852555274625 0.7350300131079962 -8.634896340216958 15.153699282413399" Properties=species:S:1:pos:R:3 unique_starting_index=51 config_type=initial n_minim_iter=21 stress="0.0011148997364491188 -0.0006820125055495631 -0.00020291119974475707 -0.0006820125055495631 0.0010556489555609064 -0.0001334025569787354 -0.00020291119974475707 -0.0001334025569787354 0.000752770889233213" pbc="T T T"
Si       1.07775415       4.80185484      -0.04789824
Si       0.26304641      -1.26614488       8.21287529
Si      -0.46523003       6.21636687      -4.10637998
Si      -0.31295357       3.77770125       1.61400601
Si       0.21614792      -0.76080809       5.85599192
Si       3.16920820      -2.04054848       5.86264993
Si      -0.85865105       0.96795285       0.38010409
Si      -0.08878250       2.54252051      -1.19772811
Si       2.34044269      -3.91417862       7.18592952
Si       3.21163940      -3.88428099      11.35081112
Si      -1.40757623       0.37739665       8.96551867
Si       3.18641076      -1.31948778       3.61531052
Si       0.06734286       1.14221654       2.58672965
Si       3.80053761      -7.23025539      13.39387044
Si       2.19608373      -5.92392310      12.19724551
Si       1.81048277       2.63822414       1.94755421
Si       1.44527857      -0.76405033       2.07376028
Si       2.27731017      -0.35112821       7.19204775
Si       1.98511186      -3.16663573       9.45327658
Si       1.50747992      -4.04716111       4.17832647
Si       2.73359396       0.68410189       0.60846594
Si       3.42374966      -3.57060817       2.73614514
