24
Lattice="8.050290613828572 2.5678126093679223 -0.5377799996892726 -1.943972219026386 7.463858087240357 -0.0694450169493475 -0.4936711949288864 -0.36856564422425314 7.159505907770326" Properties=species:S:1:pos:R:3 unique_starting_index=90 config_type=initial n_minim_iter=1 energy=-3907.783734658566 free_energy=-3907.783734658566 pbc="T T T"
Si       5.55123453       0.83870089       4.33382329
Si       1.04174359       3.61352471      -0.40861023
Si       5.55832040       7.98902795       1.15291944
Si       2.07776916       1.18223637       1.99075145
Si       4.60876030       4.41120825       5.96019270
Si      -0.93045730       5.02501295       6.26619310
Si       0.37666945       2.75692979       1.68279732
Si       2.29445264       4.80245557       6.44870770
Si       0.47158652       8.11180361       4.23537522
Si       6.16521443       3.94517346       4.03289282
Si       2.28530675       6.56192133       1.09875876
Si       4.07681886       9.68068940       2.08737931
Si       4.81290926      10.17466215      -1.09291117
Si       8.45595078       4.11365097       4.61933550
Si      -0.09855676       6.21123752       1.47736427
Si      -1.37627573       7.36639527       6.80466362
Si      -1.81816427       1.82377959       1.45966965
Si       4.86692399       6.90980129       6.00969820
Si       3.80540909       1.89471257       5.82681356
Si      -0.23649314       4.48373347       3.19747923
Si       1.12390628       5.81309039       4.62108684
Si       4.14010909       1.42707357       0.90628071
Si       5.53699783       5.97759794       2.65875136
Si       3.16892267       6.19012715       3.20820597
24
Lattice="8.053140676237662 2.568777013284696 -0.5366443924303468 -1.9413517909899114 7.456828626666377 -0.0667189948479166 -0.4939203168308062 -0.3658668417342247 7.156821851727583" Properties=species:S:1:pos:R:3 unique_starting_index=90 config_type=initial n_minim_iter=2 stress="-0.0001919635365698591 8.56698199606589e-05 -2.1712200814446528e-05 8.56698199606589e-05 -0.0005833891205595755 8.710809103427775e-05 -2.1712200814446528e-05 8.710809103427775e-05 -0.0005398989280558288" pbc="T T T"
Si       5.55314803       0.84190457       4.33289093
Si       1.04331324       3.61072388      -0.40729528
Si       5.56294611       7.98500837       1.15587246
Si       2.07837700       1.18272578       1.99016575
Si       4.61167852       4.41162793       5.95952260
Si      -0.92884878       5.02295478       6.26568127
Si       0.37781798       2.75531611       1.68339942
Si       2.29689838       4.80194257       6.44823163
Si       0.47497078       8.10670131       4.23696825
Si       6.16816266       3.94590982       4.03296893
Si       2.28858057       6.55759283       1.10096315
Si       4.08164490       9.67504605       2.09000684
Si       4.81810379      10.16790670      -1.08883014
Si       8.45957796       4.11538597       4.61937129
Si      -0.09612436       6.20656562       1.47889802
Si      -1.37330870       7.36208916       6.80501403
Si      -1.81782126       1.82202046       1.45980400
Si       4.87080241       6.90816301       6.00989663
Si       3.80716776       1.89676191       5.82549894
Si      -0.23505225       4.48093778       3.19802045
Si       1.12666771       5.81042209       4.62131626
Si       4.14173814       1.42819663       0.90640663
Si       5.54073398       5.97580966       2.66001743
Si       3.17241761       6.18740205       3.20891302
24
Lattice="8.06115295552129 2.572479037527254 -0.5355322086712537 -1.939347000361772 7.455809405509787 -0.06384890184306267 -0.49411990828077473 -0.36320322535498784 7.1616381014849635" Properties=species:S:1:pos:R:3 unique_starting_index=90 config_type=initial n_minim_iter=3 stress="0.0010213229774074177 0.00038306346052966985 -1.8138266980561812e-05 0.00038306346052966985 -1.4338416075986666e-06 0.00033042634198172076 -1.8138266980561812e-05 0.00033042634198172076 0.0003908478289933894" pbc="T T T"
Si       5.55934087       0.84652167       4.33737804
Si       1.04560240       3.61085136      -0.40644206
Si       5.57190661       7.98797453       1.16144960
Si       2.07995307       1.18425913       1.99130357
Si       4.61819921       4.41639523       5.96529079
Si      -0.92757320       5.02563676       6.27172155
Si       0.37931437       2.75591842       1.68626096
Si       2.30143480       4.80615524       6.45503023
Si       0.47942532       8.10844512       4.24368756
Si       6.17542692       3.95062495       4.03793502
Si       2.29394900       6.55852480       1.10507521
Si       4.08976464       9.67777838       2.09520924
Si       4.82699953      10.17011813      -1.08517963
Si       8.46907566       4.12145054       4.62514480
Si      -0.09330042       6.20709724       1.48191965
Si      -1.36986731       7.36390729       6.81297727
Si      -1.81833744       1.82165103       1.46145703
Si       4.87853244       6.91279810       6.01670360
Si       3.81193696       1.90086037       5.83066400
Si      -0.23381861       4.48175438       3.20227606
Si       1.13104771       5.81286771       4.62628182
Si       4.14627726       1.43141573       0.90768496
Si       5.54856590       5.97945507       2.66471449
Si       3.17898254       6.19008071       3.21279729
24
Lattice="8.04227012403633 2.5727270805914104 -0.5329380313701342 -1.9345698858991418 7.455517147549143 -0.06509887269400526 -0.4900443549639992 -0.36357205563033845 7.169185395989221" Properties=species:S:1:pos:R:3 unique_starting_index=90 config_type=initial n_minim_iter=4 stress="-0.0013305850875234523 0.00028882898024251713 0.00015889515208390926 0.00028882898024251713 -0.00026203315099984945 9.32040547185723e-05 0.00015889515208390926 9.32040547185723e-05 0.0007485951984465399" pbc="T T T"
Si       5.55351481       0.84737042       4.34946223
Si       1.04119071       3.60966871      -0.40901015
Si       5.56167782       7.98674529       1.17196090
Si       2.07102379       1.18227388       1.98905067
Si       4.61087785       4.41691681       5.97075944
Si      -0.92745390       5.02897474       6.27587556
Si       0.37718592       2.75422478       1.69132732
Si       2.29819432       4.80874063       6.46414282
Si       0.47946367       8.10735208       4.25085877
Si       6.16261684       3.95103864       4.04604400
Si       2.29020742       6.55459140       1.11022117
Si       4.08029716       9.67712896       2.09603379
Si       4.81545340      10.17232866      -1.08473972
Si       8.45195949       4.12197037       4.63594437
Si      -0.09342179       6.20694428       1.47987058
Si      -1.36001523       7.36187224       6.82129101
Si      -1.81296781       1.82114558       1.46219670
Si       4.86965931       6.91171180       6.02223453
Si       3.80749282       1.89986545       5.83893800
Si      -0.23751905       4.47944330       3.20696315
Si       1.13268421       5.81262022       4.62699631
Si       4.13881943       1.43670271       0.90949786
Si       5.53752109       5.97870369       2.67024537
Si       3.17743641       6.18904133       3.21097882
24
Lattice="8.050768760298531 2.5678827080639146 -0.534852435000738 -1.9427275209473642 7.46011935735809 -0.06753080473756692 -0.4919042602315261 -0.3661726870398066 7.158894077409134" Properties=species:S:1:pos:R:3 unique_starting_index=90 config_type=initial n_minim_iter=5 stress="-0.0003061394195009834 -7.399261323524044e-05 -9.409381686772672e-05 -7.399261323524044e-05 -4.658238658015471e-05 -0.00012107022867176808 -9.409381686772672e-05 -0.00012107022867176808 -7.003505049925391e-05" pbc="T T T"
Si       5.56007288       0.84181642       4.34239996
Si       1.03946567       3.61045750      -0.41026074
Si       5.56284404       7.98506053       1.16697605
Si       2.07170113       1.17990337       1.98446708
Si       4.61235820       4.41305007       5.95888943
Si      -0.93452981       5.02989780       6.26446727
Si       0.37475494       2.75436046       1.68804222
Si       2.29592454       4.80692585       6.45244333
Si       0.47288888       8.10867816       4.24160362
Si       6.16665375       3.94643613       4.03745755
Si       2.28798388       6.55472698       1.10596604
Si       4.07757280       9.67727920       2.08789498
Si       4.81416528      10.17383787      -1.08806796
Si       8.45875199       4.11549216       4.62623955
Si      -0.09874225       6.20892261       1.47476687
Si      -1.36823085       7.36317732       6.80890316
Si      -1.81700311       1.82262792       1.45966904
Si       4.86928909       6.90839603       6.00949275
Si       3.81001018       1.89528683       5.82887255
Si      -0.24280466       4.47998227       3.20088292
Si       1.12921004       5.81225097       4.61678562
Si       4.14299235       1.43445276       0.90664868
Si       5.53962887       5.97567250       2.66294815
Si       3.17686969       6.18786783       3.20226124
24
Lattice="8.05471108084643 2.5673300196693805 -0.5290870910016883 -1.9446553600376384 7.461632642568223 -0.06649786991348683 -0.4878675368012738 -0.36410774034912585 7.15566726832395" Properties=species:S:1:pos:R:3 unique_starting_index=90 config_type=initial n_minim_iter=6 stress="0.0001598255936338449 -9.181921340304709e-05 0.0002274133117983637 -9.181921340304709e-05 0.00013267298331668735 0.00018068507462147795 0.0002274133117983637 0.00018068507462147795 -0.00012199972940501335" pbc="T T T"
Si       5.56551352       0.84209092       4.34369021
Si       1.03916624       3.61188757      -0.40760370
Si       5.56567441       7.98605550       1.17113140
Si       2.07485517       1.18041927       1.98585527
Si       4.61772989       4.41505755       5.96092758
Si      -0.93105915       5.03188674       6.26271633
Si       0.37561643       2.75589006       1.68769153
Si       2.30042615       4.80897779       6.45212063
Si       0.47479428       8.11154248       4.24183741
Si       6.17236973       3.94749012       4.04049962
Si       2.28851966       6.55750348       1.10787460
Si       4.08045049       9.67957926       2.09279583
Si       4.81577876      10.17523176      -1.08151089
Si       8.46561857       4.11622152       4.63032671
Si      -0.09819283       6.20985785       1.47650627
Si      -1.36634229       7.36718216       6.80704188
Si      -1.81757628       1.82348085       1.45831219
Si       4.87478627       6.91089089       6.01314238
Si       3.81534545       1.89694999       5.82903995
Si      -0.24087114       4.48222297       3.20092972
Si       1.13232256       5.81428177       4.61724710
Si       4.14471666       1.43301717       0.90962663
Si       5.54363071       5.97644808       2.66705056
Si       3.17978756       6.18978450       3.20609782
24
Lattice="8.062500651860011 2.5707794698984854 -0.5398840982520522 -1.9419821076494796 7.456596652007993 -0.07163810782863038 -0.4957426183265606 -0.37099444533997894 7.158154549505023" Properties=species:S:1:pos:R:3 unique_starting_index=90 config_type=initial n_minim_iter=7 stress="0.000872810667365448 0.00017694097923824396 -0.00017919106488277234 0.00017694097923824396 -0.00025036078820930943 -0.0003517428145326862 -0.00017919106488277234 -0.0003517428145326862 0.00020861010891302112" pbc="T T T"
Si       5.56655486       0.83935386       4.33835344
Si       1.04107788       3.61302424      -0.41111202
Si       5.57296400       7.98290561       1.15760049
Si       2.07547935       1.17849209       1.98313112
Si       4.61677268       4.40962185       5.95360425
Si      -0.93474343       5.02172597       6.25932882
Si       0.37501307       2.75380848       1.68444476
Si       2.29755266       4.80129489       6.44566718
Si       0.47496712       8.10367816       4.23363796
Si       6.17552443       3.94455952       4.03127614
Si       2.29115835       6.55676392       1.09827093
Si       4.08691004       9.67525267       2.08025664
Si       4.82737869      10.17493794      -1.09564353
Si       8.46876846       4.11344503       4.61870694
Si      -0.09583215       6.20359740       1.47153460
Si      -1.37082707       7.35682595       6.80240475
Si      -1.81986451       1.81984460       1.45814060
Si       4.87556204       6.90392983       6.00495776
Si       3.81350521       1.89225903       5.82380794
Si      -0.24185557       4.47724960       3.19854490
Si       1.13293683       5.80684818       4.61023670
Si       4.14591837       1.43144341       0.90507710
Si       5.54813697       5.97228322       2.65678593
Si       3.18297062       6.18551795       3.19925145
24
Lattice="8.060243406790203 2.5729790557264365 -0.5429297503916264 -1.941426420581477 7.464760035589428 -0.06342181465355894 -0.5007194550778068 -0.3648996709886352 7.152737791029483" Properties=species:S:1:pos:R:3 unique_starting_index=90 config_type=initial n_minim_iter=8 stress="0.0005105892382450701 3.3015556488274e-05 -0.000537943222759682 3.3015556488274e-05 0.000398758272394055 0.0005356986138889521 -0.000537943222759682 0.0005356986138889521 -9.99602849778257e-05" pbc="T T T"
Si       5.56522509       0.84311207       4.33428625
Si       1.03867184       3.61886067      -0.40771634
Si       5.57122582       7.99123373       1.16255917
Si       2.07185471       1.18020504       1.97918834
Si       4.61039611       4.42026577       5.94895288
Si      -0.94042089       5.03332304       6.25759182
Si       0.37199840       2.75877482       1.68578365
Si       2.29102798       4.81337832       6.44269313
Si       0.47092362       8.11655763       4.23722862
Si       6.17126892       3.95225151       4.02783159
Si       2.28813068       6.56653319       1.10175811
Si       4.08393888       9.68849897       2.08397333
Si       4.82826012      10.18816414      -1.08799503
Si       8.46229629       4.12129754       4.61382111
Si      -0.09670185       6.20983743       1.47545186
Si      -1.37443906       7.37161642       6.80492164
Si      -1.82072684       1.82266928       1.45910396
Si       4.86908362       6.91643122       6.00472591
Si       3.80937147       1.89893151       5.81757951
Si      -0.24657174       4.48515698       3.20219863
Si       1.13215965       5.81692325       4.60749221
Si       4.14255854       1.43351684       0.90330123
Si       5.54455099       5.97911896       2.65714797
Si       3.18220394       6.19534642       3.19931827
24
Lattice="8.060757237442058 2.575026140478982 -0.5263270075551918 -1.9422103837085236 7.470400698755565 -0.07263425248700361 -0.485147503222459 -0.37000443769318203 7.1423085571885245" Properties=species:S:1:pos:R:3 unique_starting_index=90 config_type=initial n_minim_iter=9 stress="-0.00010426832510637947 2.817088827405276e-05 0.0006170577350568659 2.817088827405276e-05 0.00046798370174159994 0.0003931961462069297 0.0006170577350568659 0.0003931961462069297 -0.00038048634529938487" pbc="T T T"
Si       5.58750836       0.83829134       4.34870921
Si       1.03125327       3.62708712      -0.40698255
Si       5.57807133       7.99223033       1.17767061
Si       2.07056794       1.17561416       1.97291305
Si       4.62282781       4.42099573       5.94471983
Si      -0.93310876       5.03554293       6.23686544
Si       0.37063913       2.76045348       1.68481329
Si       2.30233820       4.81628443       6.43467013
Si       0.47775904       8.11963209       4.22747365
Si       6.18278639       3.95174514       4.03497679
Si       2.28757084       6.57304626       1.10186887
Si       4.08887702       9.69596947       2.08123135
Si       4.83111149      10.20554720      -1.08000872
Si       8.47387092       4.11970103       4.62701432
Si      -0.09330819       6.20836274       1.46610991
Si      -1.35595706       7.37303561       6.78872391
Si      -1.81882877       1.82154153       1.44977879
Si       4.88182491       6.91564646       6.00597591
Si       3.82739603       1.89428034       5.81489070
Si      -0.24822683       4.48551236       3.19967245
Si       1.15149047       5.81739822       4.58805553
Si       4.14245750       1.43543332       0.91121097
Si       5.55223027       5.97570478       2.66441290
Si       3.19819515       6.19798557       3.19336429
24
Lattice="8.062011881084722 2.565851265819902 -0.5352558744887681 -1.9487707460113435 7.463385628299857 -0.07361480205660996 -0.49175000486728354 -0.37182665370007634 7.148506160559607" Properties=species:S:1:pos:R:3 unique_starting_index=90 config_type=initial n_minim_iter=10 stress="-8.473682479367473e-05 -0.00047350496802249525 0.00015662031154207691 -0.00047350496802249525 -0.00028756253692041893 0.00031315350763754305 0.00015662031154207691 0.00031315350763754305 0.0002172424119603477" pbc="T T T"
Si       5.58977080       0.82984396       4.35043656
Si       1.02629855       3.62518094      -0.40932527
Si       5.57378421       7.97649925       1.17453629
Si       2.06555841       1.17086576       1.96942375
Si       4.61376702       4.41062526       5.94225854
Si      -0.94610667       5.02876685       6.23714490
Si       0.36490673       2.75692268       1.68548269
Si       2.29149235       4.80779380       6.43470161
Si       0.46652954       8.10809941       4.22680502
Si       6.17880274       3.94015633       4.03138858
Si       2.28037973       6.56487964       1.09830103
Si       4.08047070       9.68150162       2.07494366
Si       4.82804334      10.19484180      -1.08765069
Si       8.46903550       4.10623253       4.62265302
Si      -0.09915020       6.19790663       1.46441714
Si      -1.36702290       7.36321239       6.79284950
Si      -1.82275025       1.81958034       1.45065216
Si       4.87185220       6.90064015       6.00607724
Si       3.82393877       1.88579007       5.81380258
Si      -0.25799998       4.47949353       3.20354552
Si       1.14806693       5.80835542       4.58290399
Si       4.14051227       1.43064765       0.90786213
Si       5.54724333       5.96030603       2.66053302
Si       3.19432469       6.18772791       3.18914342
24
Lattice="8.068272417478388 2.5834967502964883 -0.5547764511737097 -1.9354785205904805 7.466696053548568 -0.08362235297256769 -0.5060567245372241 -0.3862441555292685 7.143219901991716" Properties=species:S:1:pos:R:3 unique_starting_index=90 config_type=initial n_minim_iter=11 stress="-0.0001683493696981116 0.00035018569547781323 -0.0005883710724037114 0.00035018569547781323 -8.940704971951558e-05 -0.0005203057420798079 -0.0005883710724037114 -0.0005203057420798079 7.39183131836595e-05" pbc="T T T"
Si       5.59239986       0.82975238       4.34123142
Si       1.02851727       3.63665388      -0.41683831
Si       5.58799566       7.98862820       1.15513970
Si       2.05858244       1.17120486       1.95745877
Si       4.60670767       4.41239877       5.91794083
Si      -0.95416086       5.02032304       6.21651709
Si       0.36343092       2.75831152       1.67898510
Si       2.28461888       4.80642918       6.41281113
Si       0.47111779       8.10783707       4.20492301
Si       6.18022268       3.94548518       4.00917935
Si       2.28697797       6.57572143       1.08067629
Si       4.09404074       9.69462192       2.04698943
Si       4.85330480      10.22303443      -1.11168908
Si       8.46830649       4.11619620       4.59682606
Si      -0.08962565       6.19471181       1.45130204
Si      -1.36400226       7.35462093       6.77549397
Si      -1.82355688       1.81380075       1.44658856
Si       4.87225239       6.90245054       5.98409811
Si       3.82091048       1.88117716       5.79452715
Si      -0.26077310       4.47759656       3.19796233
Si       1.16053782       5.80825344       4.55547931
Si       4.13892055       1.43873263       0.89684749
Si       5.55374696       5.96428410       2.63918403
Si       3.20375056       6.19447650       3.16631034
24
Lattice="8.07731255688441 2.567489012280803 -0.5446623125515831 -1.9521296611758117 7.464103796742419 -0.0891028640408133 -0.4968392409150808 -0.3879403734132897 7.1357792592476335" Properties=species:S:1:pos:R:3 unique_starting_index=90 config_type=initial n_minim_iter=12 stress="-1.873573785257854e-05 -0.0005674614098336175 0.00029771500474601276 -0.0005674614098336175 -0.0005546686317216356 7.047985283345712e-06 0.00029771500474601276 7.047985283345712e-06 0.00045820037790249383" pbc="T T T"
Si       5.62215561       0.81225506       4.35929473
Si       1.01672628       3.64221322      -0.41621332
Si       5.58717344       7.96882877       1.17299273
Si       2.05160515       1.17065024       1.95300327
Si       4.60106014       4.39736575       5.91411555
Si      -0.97057948       5.01333851       6.19028321
Si       0.35672385       2.75959771       1.67698189
Si       2.28033788       4.79854371       6.40214340
Si       0.45938300       8.09619182       4.19103102
Si       6.19151083       3.92323927       4.01195236
Si       2.27569105       6.56947477       1.07921101
Si       4.08631166       9.67894323       2.04921237
Si       4.85082912      10.22315641      -1.10268333
Si       8.48477433       4.09818177       4.60551640
Si      -0.09523745       6.17721102       1.44958974
Si      -1.36364064       7.34432603       6.76409652
Si      -1.82997832       1.81195464       1.43615385
Si       4.87573167       6.87993562       5.99682028
Si       3.84203215       1.86421034       5.78554272
Si      -0.26944727       4.47532527       3.20449096
Si       1.18689925       5.80777526       4.53000096
Si       4.14054808       1.43596374       0.89902409
Si       5.55690458       5.93527663       2.64742560
Si       3.20405682       6.18733200       3.16034759
24
Lattice="8.10179238841412 2.5773315203752687 -0.5579366215984803 -1.9521058691793958 7.471516127988 -0.10318259128465067 -0.5070193683491085 -0.40471186582259655 7.109246212348394" Properties=species:S:1:pos:R:3 unique_starting_index=90 config_type=initial n_minim_iter=13 stress="-5.767045895921326e-06 -0.0004622459254981108 0.000607976683033801 -0.0004622459254981108 -7.831370163202302e-05 0.00020541645315250167 0.000607976683033801 0.00020541645315250167 -1.846201720597275e-05" pbc="T T T"
Si       5.66522913       0.79633352       4.36662046
Si       1.00767670       3.66943075      -0.42387884
Si       5.61084089       7.97269012       1.17627304
Si       2.03467483       1.17867414       1.92898412
Si       4.58003183       4.38875379       5.87060265
Si      -1.00685196       4.99863921       6.12034726
Si       0.34645840       2.77087307       1.66438982
Si       2.26436213       4.79810094       6.35260597
Si       0.45264298       8.09209344       4.14154238
Si       6.21101099       3.90881483       3.98102097
Si       2.27389868       6.58475839       1.05480439
Si       4.09979237       9.68866889       2.02063752
Si       4.89084147      10.27518726      -1.11573567
Si       8.51068331       4.10158381       4.57508831
Si      -0.08633063       6.15727170       1.43458616
Si      -1.35553403       7.32736581       6.72205710
Si      -1.83915152       1.80361551       1.41668704
Si       4.88331947       6.86429930       5.98306082
Si       3.86766642       1.84241667       5.73700503
Si      -0.27990469       4.47754736       3.20845557
Si       1.24987863       5.82213982       4.45542472
Si       4.14166194       1.45074419       0.88430604
Si       5.57240658       5.91263454       2.62944789
Si       3.21816678       6.19976427       3.11926878
24
Lattice="8.107620639213534 2.605061528755058 -0.5848244354526763 -1.9260787345607542 7.469456628167678 -0.09067287807973305 -0.5335099528604422 -0.40120835325055965 7.111738848722469" Properties=species:S:1:pos:R:3 unique_starting_index=90 config_type=initial n_minim_iter=14 stress="0.00025506570784524565 0.0009956034291502703 -0.0009100622880377747 0.0009956034291502703 0.0006384354323397985 0.0001700814441808725 -0.0009100622880377747 0.0001700814441808725 -0.00019681365387884972" pbc="T T T"
Si       5.63119231       0.82311991       4.34189577
Si       1.02990669       3.66523452      -0.42931160
Si       5.62753617       8.00344461       1.15763950
Si       2.04776315       1.19476767       1.92808975
Si       4.56900138       4.40157453       5.86195374
Si      -1.01046110       4.99272501       6.13391967
Si       0.35203754       2.78031452       1.66249817
Si       2.25854373       4.81223445       6.35425388
Si       0.46567544       8.10407693       4.14789257
Si       6.20425862       3.93242956       3.96282060
Si       2.29487370       6.59505741       1.04693521
Si       4.11945974       9.70579629       2.01911117
Si       4.92124376      10.28159419      -1.13206873
Si       8.50528412       4.13409245       4.54192015
Si      -0.07503613       6.17613037       1.44258378
Si      -1.35666074       7.32532355       6.73031664
Si      -1.83436669       1.80378644       1.43115091
Si       4.87978534       6.88570798       5.96669226
Si       3.84429100       1.86180547       5.72420664
Si      -0.26153779       4.48328280       3.21384997
Si       1.24494887       5.83684431       4.47253888
Si       4.14338017       1.46676853       0.86984095
Si       5.57330831       5.94763105       2.61040387
Si       3.22206717       6.21727158       3.11080446
24
Lattice="8.160200451127329 2.63243704622942 -0.628440254199997 -1.91508575885397 7.471770295237712 -0.11057780667865343 -0.5700716503911935 -0.43105764050488593 7.0695930997961725" Properties=species:S:1:pos:R:3 unique_starting_index=90 config_type=initial n_minim_iter=15 stress="0.0001422401498150462 0.0014906162548609715 -0.00134669371491097 0.0014906162548609715 0.0010261768274149692 -0.00025026566457821825 -0.00134669371491097 -0.00025026566457821825 -0.0007189466892670527" pbc="T T T"
Si       5.68551646       0.80674839       4.34142076
Si       1.02492058       3.70304284      -0.45186023
Si       5.68580472       8.01355835       1.15419579
Si       2.04166672       1.21070683       1.87621191
Si       4.52860236       4.37559921       5.77756801
Si      -1.08521412       4.94638474       6.02020277
Si       0.32931014       2.80669945       1.63956504
Si       2.22494838       4.81472452       6.27468363
Si       0.45609039       8.09669652       4.06957976
Si       6.23817521       3.91238895       3.90023597
Si       2.30053161       6.62524539       0.99089272
Si       4.15028357       9.71876723       1.96269886
Si       5.01384850      10.35646043      -1.17584230
Si       8.54986589       4.13928513       4.46334722
Si      -0.06172840       6.15636739       1.41423246
Si      -1.34750213       7.27813974       6.65763321
Si      -1.84766230       1.78962382       1.41288470
Si       4.88332799       6.85121064       5.92473935
Si       3.87137652       1.83029115       5.62922973
Si      -0.27242957       4.48296580       3.23130113
Si       1.34757677       5.85823018       4.35233999
Si       4.14654195       1.49515937       0.83698215
Si       5.59719460       5.92471294       2.56221297
Si       3.26745764       6.23774144       3.02322429
24
Lattice="8.18195024144746 2.624871949018515 -0.6280797604616813 -1.9255165694890675 7.464481268449873 -0.11786159782737128 -0.5698564976729871 -0.43708340345085084 7.0540236565855166" Properties=species:S:1:pos:R:3 unique_starting_index=90 config_type=initial n_minim_iter=16 stress="-6.0681922685004577e-05 0.0005892895964156141 -0.00066670488532089 0.0005892895964156141 0.0005362146509910551 -0.00041479066768012544 -0.00066670488532089 -0.00041479066768012544 -0.0003839719091497189" pbc="T T T"
Si       5.70948815       0.79341839       4.35305476
Si       1.01966839       3.70542719      -0.46067015
Si       5.70481183       7.99838146       1.17022288
Si       2.05441516       1.21607975       1.85990850
Si       4.52108899       4.34576222       5.75905293
Si      -1.11512887       4.91691787       5.97874872
Si       0.31887934       2.81654324       1.63291150
Si       2.21914998       4.80889634       6.25762666
Si       0.44768126       8.08663866       4.04872717
Si       6.25826286       3.89037824       3.89418757
Si       2.29452066       6.62769744       0.97387175
Si       4.15034905       9.70244663       1.95710615
Si       5.03561525      10.35240520      -1.18156045
Si       8.57575118       4.11747735       4.44982761
Si      -0.06847377       6.15236955       1.40708988
Si      -1.34457527       7.24945286       6.62910586
Si      -1.85236438       1.78789450       1.40968137
Si       4.88539614       6.81763500       5.92089770
Si       3.88773159       1.81378169       5.60172804
Si      -0.27211690       4.48032951       3.24599599
Si       1.38348921       5.85859417       4.31987152
Si       4.15228871       1.49731941       0.83284745
Si       5.60319032       5.90642768       2.55630860
Si       3.29032132       6.23269542       2.99600672
24
Lattice="8.181688851901988 2.598230973490579 -0.5954352965496179 -1.946041800105275 7.45119196949999 -0.11554685724168952 -0.5430459169889308 -0.4258488400852134 7.055911042638731" Properties=species:S:1:pos:R:3 unique_starting_index=90 config_type=initial n_minim_iter=17 stress="-0.00048002924240476963 -0.0009807203189379663 0.0006906702470979866 -0.0009807203189379663 -0.0006151268474298917 -3.177546903996883e-05 0.0006906702470979866 -3.177546903996883e-05 0.0005225512350776063" pbc="T T T"
Si       5.71016920       0.78631638       4.37115087
Si       1.01675365       3.68360429      -0.45906061
Si       5.70030201       7.97175268       1.19849995
Si       2.07712761       1.21696777       1.87078248
Si       4.54136872       4.31819404       5.78775209
Si      -1.10779687       4.90103397       5.98722631
Si       0.32193893       2.81269114       1.63841050
Si       2.23778170       4.79852792       6.28328724
Si       0.44708953       8.07692282       4.06816191
Si       6.26989295       3.87446339       3.92794351
Si       2.28382509       6.61346566       0.98776676
Si       4.13475113       9.67087145       1.98760016
Si       5.01279823      10.29691026      -1.15753314
Si       8.58810061       4.08378095       4.48298901
Si      -0.08514778       6.16141276       1.41648162
Si      -1.34250494       7.23626023       6.63084514
Si      -1.84948142       1.79384529       1.41668627
Si       4.89123583       6.79160685       5.94408585
Si       3.89531950       1.81303450       5.62328394
Si      -0.26076640       4.47846339       3.25691262
Si       1.37129685       5.84586425       4.35124497
Si       4.16320187       1.48477289       0.84773048
Si       5.60254903       5.89720190       2.58062042
Si       3.29721793       6.21313569       3.01349781
24
Lattice="8.231331301429496 2.606293909197228 -0.5993868913616376 -1.9480557533466023 7.44066566345147 -0.12892402627745708 -0.5479654752242074 -0.4396419160407008 7.02011262509947" Properties=species:S:1:pos:R:3 unique_starting_index=90 config_type=initial n_minim_iter=18 stress="5.181393811905787e-05 -0.0010628595684153053 0.0008906558677889272 -0.0010628595684153053 -0.0009399121241847608 0.00014466787887496598 0.0008906558677889272 0.00014466787887496598 0.00033724065728706976" pbc="T T T"
Si       5.75620106       0.77194516       4.38274492
Si       1.01557767       3.69616124      -0.47571495
Si       5.75747545       7.96601781       1.21690848
Si       2.08586476       1.24144381       1.84327034
Si       4.53518183       4.27661071       5.74751459
Si      -1.15846415       4.84637994       5.89628372
Si       0.31692683       2.82573214       1.62559387
Si       2.23653936       4.79047344       6.23687989
Si       0.45249377       8.06361726       4.01859745
Si       6.31640414       3.85617838       3.90638038
Si       2.28555389       6.63031161       0.96090190
Si       4.16010873       9.65981227       1.96949770
Si       5.08639792      10.31366104      -1.16731325
Si       8.64232671       4.06897889       4.44908594
Si      -0.08130089       6.15547653       1.40689430
Si      -1.32722335       7.18548017       6.56887904
Si      -1.85661571       1.78467067       1.40728101
Si       4.91128920       6.74762316       5.93356198
Si       3.92612186       1.79619660       5.56720745
Si      -0.25360069       4.48162203       3.27852866
Si       1.45116336       5.85729199       4.28231069
Si       4.18767548       1.50603116       0.82925509
Si       5.63920958       5.87789740       2.56404926
Si       3.34278055       6.21886840       2.96065779
24
Lattice="8.258635796826336 2.63492871531894 -0.5835956734122845 -1.9307803557862298 7.444857832138028 -0.1469865293550956 -0.5340665050757785 -0.45498345718187244 6.989379753971063" Properties=species:S:1:pos:R:3 unique_starting_index=90 config_type=initial n_minim_iter=19 stress="0.0005713363021556498 0.00026801209905421143 -0.00012025599847428465 0.00026801209905421143 -0.0001861569517596517 0.00035998919779125485 -0.00012025599847428465 0.00035998919779125485 0.00016858287121876604" pbc="T T T"
Si       5.76893680       0.77282838       4.37816414
Si       1.02237017       3.70390616      -0.48846622
Si       5.81835701       7.99507844       1.21001166
Si       2.08574068       1.27076481       1.83743302
Si       4.57628174       4.25709108       5.73444769
Si      -1.15422674       4.80550123       5.82477307
Si       0.34188575       2.81785514       1.62214707
Si       2.27345348       4.78188535       6.20242391
Si       0.49782041       8.07186535       3.98286869
Si       6.35629157       3.88724753       3.90135529
Si       2.29659779       6.66412474       0.95936505
Si       4.20249741       9.68240657       1.94962749
Si       5.15727054      10.33452923      -1.16694136
Si       8.67131913       4.07269161       4.43831403
Si      -0.06603784       6.18399904       1.40281094
Si      -1.29817454       7.15887832       6.50617074
Si      -1.84846421       1.77416936       1.40101085
Si       4.94706258       6.74417403       5.91911270
Si       3.93408330       1.81472064       5.55008375
Si      -0.23300105       4.49933804       3.27334176
Si       1.47881062       5.86466472       4.25636810
Si       4.22860802       1.53423174       0.81535915
Si       5.70102005       5.90321524       2.55545952
Si       3.38370756       6.23614366       2.93502494
24
Lattice="8.24000063164497 2.6486965972227967 -0.5820631669536291 -1.922700696808554 7.468893639633287 -0.1695204331414189 -0.5265771273881146 -0.47654515898502586 6.970464941376964" Properties=species:S:1:pos:R:3 unique_starting_index=90 config_type=initial n_minim_iter=20 stress="-0.0013828253997097597 -6.415652415143005e-05 -0.0005130316946253273 -6.415652415143005e-05 0.0012822830236752507 -0.0012789873149019334 -0.0005130316946253273 -0.0012789873149019334 -0.0012741890369455128" pbc="T T T"
Si       5.75040057       0.76767609       4.37178357
Si       1.00990670       3.71452904      -0.49623226
Si       5.82123372       8.02451368       1.17916559
Si       2.09793473       1.26674864       1.82718182
Si       4.59598675       4.24890104       5.72075487
Si      -1.14043445       4.79453395       5.76833260
Si       0.33213498       2.82425612       1.62087362
Si       2.27459166       4.78192201       6.17314678
Si       0.50866402       8.09251472       3.95100978
Si       6.33885550       3.91092094       3.88551365
Si       2.29045792       6.68615941       0.94526321
Si       4.20848316       9.71325245       1.91434014
Si       5.15890794      10.35807769      -1.18724028
Si       8.65021683       4.06364965       4.42039559
Si      -0.06675504       6.22331336       1.39086775
Si      -1.27764163       7.14621315       6.46133441
Si      -1.83274595       1.76412132       1.38723875
Si       4.93505980       6.75220104       5.88222028
Si       3.91563242       1.82186687       5.53145117
Si      -0.23569868       4.51002390       3.24607671
Si       1.46075247       5.86150820       4.24040148
Si       4.21610728       1.54293153       0.81804788
Si       5.70931914       5.92714168       2.54192533
Si       3.38983530       6.24645758       2.91127520
24
Lattice="8.268412102952183 2.6533640633097217 -0.5709902972566726 -1.9207931455211436 7.452539984033835 -0.17969935163779438 -0.5176033020799646 -0.48344625650921985 6.953712910855678" Properties=species:S:1:pos:R:3 unique_starting_index=90 config_type=initial n_minim_iter=21 stress="-0.0007323474801259784 -0.0001843563683995746 -0.00012753659763342217 -0.0001843563683995746 0.0008512924639261393 -0.00121019647052729 -0.00012753659763342217 -0.00121019647052729 -0.0015014438958304045" pbc="T T T"
Si       5.77672247       0.76272932       4.39887175
Si       1.00151021       3.71468163      -0.50363819
Si       5.86709655       8.02014077       1.19379837
Si       2.11336575       1.28781765       1.81800919
Si       4.61330365       4.21332172       5.72106835
Si      -1.16314205       4.74532249       5.68559104
Si       0.32515288       2.83223836       1.62337679
Si       2.28066078       4.77142318       6.15168157
Si       0.52507144       8.07642702       3.92172750
Si       6.36457477       3.91073280       3.88507845
Si       2.29313232       6.68656704       0.93950925
Si       4.23883066       9.69577322       1.91221641
Si       5.21473063      10.34475746      -1.18195306
Si       8.68753981       4.04668418       4.41810443
Si      -0.06139120       6.22910913       1.40202829
Si      -1.24297993       7.08573551       6.42368982
Si      -1.82474455       1.74372513       1.37452403
Si       4.95275786       6.71913465       5.89148084
Si       3.93365159       1.82222522       5.50486391
Si      -0.22657900       4.51316380       3.25873322
Si       1.51311055       5.86201319       4.21236235
Si       4.23006095       1.56608154       0.81646353
Si       5.75191107       5.91452507       2.55127719
Si       3.41973875       6.24434038       2.88867322
