24
Lattice="7.927338830775871 2.526216940923261 -0.48903338225940907 -1.8857187566976656 7.270166928512382 0.03953034523536869 -0.46508704921984 -0.2521833818311682 7.3897128647581765" Properties=species:S:1:pos:R:3 unique_starting_index=90 config_type=initial n_minim_iter=1 energy=-3907.446541741702 free_energy=-3907.446541741702 pbc="T T T"
Si       5.36633645       1.14382726       4.65428343
Si       0.99262774       3.52600743      -0.35340591
Si       5.61591364       7.75104429       1.24780777
Si       2.10753546       1.13244251       2.20628446
Si       4.74878388       4.56040917       6.22011699
Si      -0.74841632       5.22542568       6.49721264
Si       0.43408927       2.67963650       1.76213151
Si       2.40226360       4.69031415       6.62061585
Si       0.40122002       7.97693674       4.58744270
Si       5.93283335       3.59335427       4.30280173
Si       2.34823004       6.32050262       1.12070590
Si       4.13024840       9.46572626       1.96368888
Si       4.74313989       9.70225824      -0.52738859
Si       8.16610117       4.29058782       4.72477289
Si      -0.03753880       6.10098713       1.57675785
Si      -1.35727752       7.47475764       7.16694127
Si      -1.80141486       1.87938410       1.50885702
Si       4.94083580       7.01227431       6.23582421
Si       3.56725892       2.01945458       6.12032367
Si      -0.11021688       3.92216605       3.70988923
Si       1.14190519       5.67182546       4.81947717
Si       4.04559043       1.37382797       0.93179274
Si       5.43560403       5.84882288       2.85003212
Si       3.10176960       6.37695339       3.36387288
24
Lattice="7.914444094673622 2.5319484759584685 -0.4908478455754085 -1.8799211998547471 7.277826517281454 0.038294528907794494 -0.4657457181524435 -0.2542298712606786 7.386574465427755" Properties=species:S:1:pos:R:3 unique_starting_index=90 config_type=initial n_minim_iter=2 stress="-0.0009102645488164659 -0.00013466761058381394 8.87615540139158e-05 -0.00013466761058381394 -0.00018834815224909478 -4.825892406351136e-05 8.87615540139158e-05 -4.825892406351136e-05 -0.00026344703141767064" pbc="T T T"
Si       5.35687378       1.14586810       4.65107879
Si       0.99225298       3.53045624      -0.35461364
Si       5.60844486       7.76186229       1.24425532
Si       2.10344176       1.13396695       2.20454149
Si       4.74057242       4.56587796       6.21533104
Si      -0.74670829       5.22971589       6.49338055
Si       0.43375747       2.68232559       1.76084765
Si       2.39871610       4.69520407       6.61647799
Si       0.40234648       7.98537571       4.58373978
Si       5.92329513       3.59858839       4.29902222
Si       2.34616519       6.32813094       1.11858666
Si       4.12589887       9.47736434       1.95996184
Si       4.73825812       9.71510088      -0.53047145
Si       8.15255916       4.29759741       4.72039774
Si      -0.03571791       6.10728132       1.57474516
Si      -1.35363434       7.48141062       7.16262802
Si      -1.79801152       1.88074489       1.50836318
Si       4.93303155       7.02043164       6.23054319
Si       3.56048741       2.02160448       6.11674611
Si      -0.10961269       3.92602058       3.70753234
Si       1.14091731       5.67744800       4.81569191
Si       4.03910183       1.37712800       0.93023460
Si       5.42758228       5.85682972       2.84657284
Si       3.09848789       6.38421554       3.36009556
24
Lattice="7.918639822172301 2.5396416217732565 -0.49372816408952036 -1.8765857806065331 7.286324998306511 0.03830551590721922 -0.46845846472177033 -0.25543739628016493 7.387844025897742" Properties=species:S:1:pos:R:3 unique_starting_index=90 config_type=initial n_minim_iter=3 stress="0.00010067218920477197 0.0001388876769543828 -0.00012345067793198 0.0001388876769543828 0.0012943115780267424 -9.861328690206596e-05 -0.00012345067793198 -9.861328690206596e-05 0.0006284172473062287" pbc="T T T"
Si       5.35846942       1.14969369       4.65002400
Si       0.99476604       3.53564901      -0.35597117
Si       5.61398887       7.77542491       1.24151707
Si       2.10337366       1.13630597       2.20386060
Si       4.74215903       4.57392157       6.21404388
Si      -0.74651940       5.23559628       6.49420785
Si       0.43455160       2.68575407       1.76098723
Si       2.40034388       4.70231782       6.61674952
Si       0.40529501       7.99586238       4.58382165
Si       5.92643449       3.60614755       4.29741251
Si       2.35019500       6.33742978       1.11772696
Si       4.13183792       9.49165112       1.95808415
Si       4.74518941       9.73043452      -0.53346052
Si       8.15634241       4.30785332       4.71841368
Si      -0.03299544       6.11462505       1.57450540
Si      -1.35219418       7.49006119       7.16389318
Si      -1.79833748       1.88228489       1.50946407
Si       4.93570704       7.03135854       6.22915138
Si       3.56061086       2.02560358       6.11676784
Si      -0.10910583       3.93114379       3.70799637
Si       1.14272284       5.68477779       4.81517874
Si       4.04134622       1.38182800       0.92874835
Si       5.43167328       5.86733408       2.84484926
Si       3.10286156       6.39338841       3.35852751
24
Lattice="7.927424686963066 2.5475304869009765 -0.497121777937747 -1.8692036329523447 7.279583217868521 0.04001532655078239 -0.4732977171989266 -0.2551217675704273 7.374732348309282" Properties=species:S:1:pos:R:3 unique_starting_index=90 config_type=initial n_minim_iter=4 stress="0.0003494093161162881 0.00092281622442477 -0.0005871113982982778 0.00092281622442477 -3.889101121746946e-05 -0.00014654447846485205 -0.0005871113982982778 -0.00014654447846485205 -0.0012192541515597013" pbc="T T T"
Si       5.36370755       1.15495206       4.63899812
Si       1.00045892       3.53470694      -0.35825162
Si       5.62578037       7.77915575       1.23509030
Si       2.10231629       1.13770907       2.19776686
Si       4.74560237       4.57745362       6.19944205
Si      -0.74572463       5.23205268       6.48367882
Si       0.43602666       2.68420301       1.75870144
Si       2.40542927       4.70370464       6.60579278
Si       0.41241029       7.99250663       4.57690774
Si       5.93474545       3.61125346       4.28660696
Si       2.35930925       6.33602548       1.11600377
Si       4.14504518       9.49024122       1.95300282
Si       4.75982340       9.72999805      -0.53645585
Si       8.16542640       4.31770350       4.70714684
Si      -0.02694941       6.10908619       1.57239078
Si      -1.34765616       7.48522247       7.15399919
Si      -1.79924261       1.87971593       1.50981099
Si       4.94084218       7.03164604       6.21535618
Si       3.56131987       2.02890115       6.10567169
Si      -0.10815527       3.93035816       3.70256368
Si       1.14709318       5.68187112       4.80480391
Si       4.04691934       1.38860605       0.92421057
Si       5.44091412       5.87095952       2.83760152
Si       3.11449608       6.39113715       3.34933915
24
Lattice="7.921078106009275 2.531401682540055 -0.4844772721714923 -1.8807036570954359 7.274869494756811 0.04353025329340289 -0.4622306732443455 -0.2478422819262694 7.3863130940774155" Properties=species:S:1:pos:R:3 unique_starting_index=90 config_type=initial n_minim_iter=5 stress="-0.0001613915244120634 -4.775213623285832e-06 -0.0002681337099347616 -4.775213623285832e-06 -0.00027320271690431093 -0.00012549114996140553 -0.0002681337099347616 -0.00012549114996140553 0.0003719260137021626" pbc="T T T"
Si       5.37373855       1.14664849       4.65600430
Si       0.99555815       3.52944240      -0.36022054
Si       5.61244625       7.76633773       1.24796505
Si       2.09792365       1.13322436       2.20275263
Si       4.74215777       4.57024336       6.21795580
Si      -0.74812804       5.23290786       6.49845162
Si       0.43128815       2.68099666       1.76621664
Si       2.41016922       4.70169857       6.62875921
Si       0.40565693       7.98848459       4.59402511
Si       5.93950718       3.60086827       4.30549241
Si       2.35112450       6.32574190       1.12874261
Si       4.13185948       9.47357986       1.97017090
Si       4.74124912       9.71141063      -0.52743316
Si       8.16570906       4.30858975       4.73367901
Si      -0.03525634       6.09958513       1.58059594
Si      -1.34833229       7.48693725       7.17412901
Si      -1.80204836       1.88319714       1.51567462
Si       4.93057851       7.01677318       6.23789171
Si       3.56455474       2.02548636       6.12643483
Si      -0.11292019       3.93281894       3.71388575
Si       1.14342843       5.67528023       4.81567636
Si       4.04849805       1.38683052       0.93182045
Si       5.43479047       5.85938049       2.85612507
Si       3.11679146       6.37657270       3.36078368
24
Lattice="7.923574115238018 2.5314167814591344 -0.4726244205574814 -1.8831977224762195 7.2814391513763725 0.045480077138639136 -0.45329077303712245 -0.24355732789302934 7.376640627046758" Properties=species:S:1:pos:R:3 unique_starting_index=90 config_type=initial n_minim_iter=6 stress="7.329504697840842e-05 -6.570856227393836e-05 0.0002637270313952971 -6.570856227393836e-05 0.00017860687256958103 0.00019325158363752063 0.0002637270313952971 0.00019325158363752063 -0.00025352658366841743" pbc="T T T"
Si       5.38273359       1.14850382       4.65753077
Si       0.99497697       3.53230185      -0.35670820
Si       5.61444367       7.77283977       1.25699985
Si       2.10084460       1.13436700       2.20268700
Si       4.75067572       4.57629757       6.21865935
Si      -0.74263119       5.24118217       6.49289687
Si       0.43234381       2.68448738       1.76621141
Si       2.41846279       4.70955134       6.62712514
Si       0.40975072       7.99803276       4.59397344
Si       5.94801459       3.60504152       4.30999319
Si       2.35211807       6.33156322       1.13439805
Si       4.13424281       9.48178129       1.97862850
Si       4.74038364       9.71843675      -0.51627547
Si       8.17486754       4.31386855       4.74090581
Si      -0.03454730       6.10467419       1.58244199
Si      -1.34169531       7.49804695       7.16893870
Si      -1.80221554       1.88631542       1.51320158
Si       4.93789328       7.02444124       6.24045895
Si       3.57321782       2.02994414       6.12473063
Si      -0.11014629       3.93892911       3.71164416
Si       1.14876922       5.68233728       4.81425647
Si       4.05113330       1.38800813       0.93706871
Si       5.43993694       5.86507960       2.86293157
Si       3.12228634       6.38214847       3.36383994
24
Lattice="7.930987699328273 2.5364430585232247 -0.4717639225134641 -1.881873732645353 7.2837754726644794 0.03280571930099216 -0.44962657632640207 -0.2556212657102796 7.370358595389329" Properties=species:S:1:pos:R:3 unique_starting_index=90 config_type=initial n_minim_iter=7 stress="0.0003661898160232719 6.651921728562675e-05 0.0005317623741542027 6.651921728562675e-05 -1.0371462060723695e-05 -0.0010708699529124715 0.0005317623741542027 -0.0010708699529124715 -4.165511814278488e-05" pbc="T T T"
Si       5.39769800       1.13669593       4.65199462
Si       0.99805192       3.53997664      -0.35984829
Si       5.61936590       7.77977302       1.23764687
Si       2.10072120       1.12586358       2.19377201
Si       4.76020736       4.56515408       6.20747924
Si      -0.74692454       5.23058597       6.48036203
Si       0.42850628       2.68633378       1.75999244
Si       2.42334566       4.70792150       6.61881734
Si       0.41774689       7.99509061       4.58026132
Si       5.96930654       3.60226898       4.30777281
Si       2.35540686       6.34014148       1.12709496
Si       4.14382010       9.48531712       1.96601680
Si       4.74721111       9.72914161      -0.53898314
Si       8.19075036       4.31646431       4.73558894
Si      -0.02802342       6.09642005       1.57369022
Si      -1.33463514       7.49054308       7.15620740
Si      -1.80983339       1.88555301       1.50964212
Si       4.94164696       7.01352284       6.22595497
Si       3.58093503       2.02215840       6.11450228
Si      -0.11407073       3.93951319       3.70117439
Si       1.15810529       5.67647748       4.80084068
Si       4.05305147       1.38718879       0.94537690
Si       5.45439001       5.86877449       2.85454855
Si       3.13884984       6.37255732       3.35040205
24
Lattice="7.929823921900511 2.5363283056489356 -0.47533001467696495 -1.88134535643969 7.285883647550608 0.04976776955522203 -0.4577362895984492 -0.2405849146547353 7.369292902083134" Properties=species:S:1:pos:R:3 unique_starting_index=90 config_type=initial n_minim_iter=8 stress="0.0001746893917990541 -8.149537848400289e-05 -0.0001292338020113399 -8.149537848400289e-05 7.072781848226344e-05 8.921617015233739e-05 -0.0001292338020113399 8.921617015233739e-05 4.697604546427289e-05" pbc="T T T"
Si       5.39452399       1.14340020       4.64620602
Si       0.99867090       3.54286153      -0.35264045
Si       5.61531910       7.78591876       1.24319610
Si       2.09575101       1.12815422       2.19075041
Si       4.75238284       4.57679684       6.21025773
Si      -0.75812850       5.24421358       6.49183781
Si       0.42389349       2.69188130       1.76432580
Si       2.41418410       4.72561037       6.62614552
Si       0.41360742       8.00688117       4.59650461
Si       5.96895013       3.61212323       4.30969772
Si       2.35288637       6.34738257       1.13838223
Si       4.14129342       9.49279757       1.98141222
Si       4.74682586       9.73281734      -0.52904265
Si       8.18599884       4.32968057       4.73506535
Si      -0.02820839       6.09740297       1.58710281
Si      -1.34163952       7.50782565       7.17463298
Si      -1.81448192       1.88972872       1.51585319
Si       4.93095232       7.02564110       6.23352353
Si       3.57387770       2.03509287       6.11226528
Si      -0.12128035       3.95060764       3.70849658
Si       1.15425094       5.68761919       4.81023496
Si       4.05009043       1.38908240       0.94734919
Si       5.45281251       5.87822537       2.86017283
Si       3.13853403       6.37755971       3.35869295
24
Lattice="7.927397333579182 2.548159271450142 -0.46368497206024367 -1.8682269364362927 7.281235000550368 0.052224406592525696 -0.4482569725896659 -0.23632608890296947 7.372781319369274" Properties=species:S:1:pos:R:3 unique_starting_index=90 config_type=initial n_minim_iter=9 stress="-0.0006218906470297668 0.0009408743425923468 0.0005398482869229981 0.0009408743425923468 -0.0004325709725317517 0.0003266473359412417 0.0005398482869229981 0.0003266473359412417 0.0005447274594692855" pbc="T T T"
Si       5.40001425       1.15011192       4.65241989
Si       1.00292551       3.54776868      -0.34701662
Si       5.62273100       7.79490351       1.25250710
Si       2.09203941       1.13151923       2.19391830
Si       4.76279633       4.58302473       6.22254016
Si      -0.74628373       5.24488495       6.49940185
Si       0.42816422       2.69193909       1.76811336
Si       2.42712141       4.73711376       6.63811051
Si       0.43357662       8.00703179       4.60447188
Si       5.98227135       3.62217477       4.32580859
Si       2.36185279       6.35267451       1.14658706
Si       4.15594947       9.50026325       1.99587400
Si       4.75884903       9.74258073      -0.52304469
Si       8.19846806       4.34779357       4.75244373
Si      -0.01491607       6.09058047       1.59472690
Si      -1.31875352       7.50829820       7.18436973
Si      -1.81170037       1.88746379       1.51604704
Si       4.94437595       7.03225155       6.24735770
Si       3.58613516       2.04364435       6.12089324
Si      -0.11095222       3.95665592       3.71216117
Si       1.17021570       5.69262380       4.81815234
Si       4.05024197       1.39804051       0.95545245
Si       5.46436895       5.89099045       2.87169798
Si       3.15302759       6.37893469       3.37027018
24
Lattice="7.92516705263443 2.5372973612958316 -0.46431775683968374 -1.8831176036731245 7.297672141220361 0.048682010776304255 -0.4487161506729115 -0.23954259627778032 7.350561924418631" Properties=species:S:1:pos:R:3 unique_starting_index=90 config_type=initial n_minim_iter=10 stress="-0.001330127610536931 0.0001579823120007594 8.105035610397842e-05 0.0001579823120007594 -0.0003513636113374582 -5.7866794490051464e-05 8.105035610397842e-05 -5.7866794490051464e-05 -0.0006362220076722669" pbc="T T T"
Si       5.40284308       1.12634555       4.62552120
Si       0.99579581       3.56355542      -0.34181935
Si       5.60274000       7.79886927       1.23433733
Si       2.07200068       1.12484293       2.18312471
Si       4.75086373       4.56629181       6.19996951
Si      -0.77203744       5.24926947       6.48069966
Si       0.41706494       2.69150245       1.76261499
Si       2.41417826       4.74868807       6.62025077
Si       0.42216046       8.01308918       4.58440125
Si       5.99369205       3.60990512       4.32004957
Si       2.34792193       6.36386315       1.14070041
Si       4.13774067       9.51230886       1.98926099
Si       4.74325225       9.76373946      -0.54360111
Si       8.20714513       4.34455741       4.73884565
Si      -0.02340198       6.08328808       1.59442328
Si      -1.33288987       7.51893344       7.16471642
Si      -1.82508822       1.89377955       1.51163027
Si       4.92622072       7.02165545       6.22241660
Si       3.59329206       2.03465342       6.09875880
Si      -0.12027601       3.97492040       3.69626722
Si       1.16271544       5.70129950       4.80037935
Si       4.04828940       1.39872393       0.95434263
Si       5.46069285       5.89859422       2.85631820
Si       3.14597337       6.37067271       3.36038273
24
Lattice="7.945110722824287 2.52254329349224 -0.45938324224834953 -1.9045682812125215 7.308062886961777 0.0504817132986881 -0.44659513903787923 -0.23609155040776353 7.339565199631601" Properties=species:S:1:pos:R:3 unique_starting_index=90 config_type=initial n_minim_iter=11 stress="0.0014177002746720625 -0.0003201551826044325 -8.911839544058751e-05 -0.0003201551826044325 0.0003306282656462471 1.3829520024562656e-05 -8.911839544058751e-05 1.3829520024562656e-05 0.0004648688656827105" pbc="T T T"
Si       5.42218657       1.10212507       4.60588623
Si       0.98978839       3.57828546      -0.33259844
Si       5.59550442       7.79634914       1.22855971
Si       2.05871964       1.11625927       2.17483519
Si       4.75120750       4.54641785       6.19343927
Si      -0.79795248       5.25444254       6.47776727
Si       0.40439327       2.68980949       1.76386249
Si       2.41061152       4.76460223       6.61881604
Si       0.41557626       8.01459435       4.57723534
Si       6.02864389       3.59372964       4.33047736
Si       2.34016009       6.37336697       1.14537893
Si       4.13071141       9.51807205       1.99828591
Si       4.73952830       9.77918455      -0.55970260
Si       8.24626353       4.34210534       4.74339648
Si      -0.03280600       6.06833917       1.60575465
Si      -1.34526386       7.52752169       7.16131641
Si      -1.84334478       1.90002977       1.51166028
Si       4.92209223       7.00728365       6.21450545
Si       3.61912370       2.02741188       6.08787031
Si      -0.12502515       3.99687262       3.68715218
Si       1.16028776       5.71098009       4.79705170
Si       4.05389535       1.39936267       0.95893618
Si       5.47199114       5.90628386       2.85121795
Si       3.14659691       6.35641638       3.36302606
24
Lattice="7.939292220208825 2.5253073773065076 -0.4636637998692905 -1.9061307817755004 7.326630004010257 0.05788385811190734 -0.4530350305382962 -0.23069545733804134 7.32362260143504" Properties=species:S:1:pos:R:3 unique_starting_index=90 config_type=initial n_minim_iter=12 stress="0.00041613421762214635 7.633068025703147e-05 -0.00019387545061571264 7.633068025703147e-05 0.00012222146049942014 8.361900596209055e-05 -0.00019387545061571264 8.361900596209055e-05 0.00016872380800273356" pbc="T T T"
Si       5.41433639       1.08959547       4.57217697
Si       0.98499009       3.60042466      -0.32601765
Si       5.57248736       7.81834636       1.22381048
Si       2.04548027       1.10627727       2.15270624
Si       4.72126905       4.54045216       6.17637700
Si      -0.81432123       5.26921714       6.47670629
Si       0.38556507       2.69537086       1.76850924
Si       2.39903262       4.79923287       6.61414235
Si       0.41991256       8.03329209       4.56761350
Si       6.04925794       3.58777271       4.33530816
Si       2.33334883       6.40470753       1.15611455
Si       4.12034795       9.54504301       2.00871264
Si       4.73473984       9.82216631      -0.58883201
Si       8.26137509       4.36572439       4.74239916
Si      -0.03951042       6.06051560       1.62689512
Si      -1.33963739       7.54365252       7.15296921
Si      -1.85034229       1.90723672       1.52023732
Si       4.89431589       7.01290574       6.19504192
Si       3.63500607       2.02959390       6.06430250
Si      -0.11918971       4.03178997       3.67083115
Si       1.15508578       5.73576409       4.79434159
Si       4.03395229       1.41115398       0.95976655
Si       5.46078611       5.94019375       2.83540980
Si       3.13763128       6.35344607       3.35605921
24
Lattice="7.930378736410875 2.5199614977150877 -0.45720651403696994 -1.9144397876012311 7.3444471683295935 0.05981332251019561 -0.448318667931705 -0.22751095253748377 7.307717303486583" Properties=species:S:1:pos:R:3 unique_starting_index=90 config_type=initial n_minim_iter=13 stress="-0.0009786407910286558 2.055378114439035e-05 0.00028494425843881074 2.055378114439035e-05 -0.00035725492006652383 3.372749599084568e-05 0.00028494425843881074 3.372749599084568e-05 -0.0005143962582436822" pbc="T T T"
Si       5.41311762       1.07281639       4.55004716
Si       0.97828743       3.61557356      -0.31944334
Si       5.54496285       7.83292391       1.22568176
Si       2.03560586       1.09642235       2.13382682
Si       4.70063841       4.53137227       6.16487238
Si      -0.82314310       5.28068541       6.47308356
Si       0.37596801       2.69997864       1.77078525
Si       2.39033198       4.82488618       6.61537566
Si       0.42185215       8.05267226       4.55667047
Si       6.06913205       3.57669730       4.34495161
Si       2.32042571       6.42915271       1.16429272
Si       4.10251492       9.56196906       2.02094675
Si       4.72188744       9.85252595      -0.61030980
Si       8.27319431       4.37418371       4.74926415
Si      -0.05083101       6.05578828       1.64376824
Si      -1.33123532       7.55453341       7.13822000
Si      -1.85756465       1.91326621       1.52541907
Si       4.87141888       7.01424318       6.18360544
Si       3.65182920       2.02641450       6.04737684
Si      -0.11608005       4.05882322       3.65262961
Si       1.15100051       5.75412482       4.79216502
Si       4.01984803       1.41654375       0.96418110
Si       5.44808284       5.96220185       2.82792935
Si       3.12864906       6.34671037       3.35140121
24
Lattice="7.926985431934494 2.5128789183687337 -0.46121963035021624 -1.9224105934844884 7.350286385355138 0.05330089610504388 -0.4490885793265848 -0.2340632253765371 7.315151714832588" Properties=species:S:1:pos:R:3 unique_starting_index=90 config_type=initial n_minim_iter=14 stress="-0.0005637825777898538 -2.1202429550638235e-05 0.00027887832505283706 -2.1202429550638235e-05 0.00013945422237052177 -0.0006668719979911572 0.00027887832505283706 -0.0006668719979911572 0.0003545211832811189" pbc="T T T"
Si       5.40699411       1.06690074       4.55280047
Si       0.97697282       3.60497230      -0.32177698
Si       5.53013904       7.83279729       1.22833062
Si       2.03898989       1.09700586       2.12788176
Si       4.69466651       4.53001990       6.16557313
Si      -0.81741761       5.27621879       6.48049021
Si       0.39438693       2.69974582       1.76828305
Si       2.37589909       4.81798127       6.63061589
Si       0.41446209       8.06724810       4.54863489
Si       6.06246252       3.56867988       4.34290517
Si       2.30552402       6.43050619       1.15433402
Si       4.08383709       9.55512927       2.01864901
Si       4.72042999       9.84720017      -0.62317907
Si       8.26177195       4.35225615       4.74687337
Si      -0.06795920       6.06819811       1.64637129
Si      -1.33299013       7.54137153       7.12390950
Si      -1.85880197       1.90834753       1.52934763
Si       4.86389171       7.01922475       6.18794252
Si       3.64555490       2.01766729       6.05047316
Si      -0.12161681       4.05169062       3.64094268
Si       1.14017867       5.75292888       4.79883451
Si       4.02478903       1.41000058       0.95516271
Si       5.43336059       5.95439341       2.82419654
Si       3.11304918       6.34466060       3.34738572
24
Lattice="7.934913937285492 2.505676243968845 -0.45579560910024963 -1.9355678834586791 7.366808238267684 0.06257766985154044 -0.44856572824894314 -0.22412993647595694 7.296804401101783" Properties=species:S:1:pos:R:3 unique_starting_index=90 config_type=initial n_minim_iter=15 stress="0.00023990444668626595 -6.552114356960676e-06 -1.7113575261894127e-05 -6.552114356960676e-06 4.749451562832366e-05 9.635885871313081e-05 -1.7113575261894127e-05 9.635885871313081e-05 -0.00010072028241091739" pbc="T T T"
Si       5.41916788       1.04910044       4.52600671
Si       0.97356727       3.62063096      -0.30974691
Si       5.51214172       7.84756038       1.22727235
Si       2.02248370       1.09131998       2.11026743
Si       4.68599936       4.52467510       6.15507788
Si      -0.83868357       5.28886153       6.48119000
Si       0.38775287       2.70375522       1.76993348
Si       2.36524043       4.85046969       6.63573128
Si       0.41400427       8.08922570       4.54276304
Si       6.09467797       3.56392377       4.35199110
Si       2.29228840       6.45407664       1.16406865
Si       4.07223923       9.57327530       2.03826038
Si       4.71996633       9.87487036      -0.63923271
Si       8.28961049       4.36286078       4.74926536
Si      -0.07809263       6.06062465       1.66757710
Si      -1.33390135       7.55776498       7.11660999
Si      -1.87529955       1.91459249       1.53410625
Si       4.84998191       7.02378741       6.18142295
Si       3.66476506       2.02080180       6.03316135
Si      -0.12861239       4.08306143       3.62559905
Si       1.13677658       5.77432815       4.79889932
Si       4.02609850       1.41583012       0.95822920
Si       5.43715180       5.97591930       2.82026849
Si       3.11335273       6.33669510       3.34914792
24
Lattice="7.936556616826618 2.5060854159810475 -0.46058948656561516 -1.93356337977327 7.3613984541076185 0.06776438720878011 -0.45398271269197443 -0.22023891264994502 7.3033067231138435" Properties=species:S:1:pos:R:3 unique_starting_index=90 config_type=initial n_minim_iter=16 stress="0.0002961745435629228 -9.860890164576306e-06 -0.00047569983624211397 -9.860890164576306e-06 1.0318704409260366e-05 0.0005345171445372388 -0.00047569983624211397 0.0005345171445372388 0.0002763257647504856" pbc="T T T"
Si       5.41636631       1.05483874       4.52793847
Si       0.97666948       3.60824255      -0.31430198
Si       5.51139650       7.84693522       1.23038836
Si       2.02996441       1.09663457       2.11115499
Si       4.68566255       4.53643995       6.16588365
Si      -0.83538475       5.27704432       6.49661753
Si       0.38901630       2.70173606       1.77127490
Si       2.36268298       4.84643302       6.64340071
Si       0.41419131       8.09070855       4.54431803
Si       6.08045108       3.57512668       4.34564861
Si       2.28324330       6.45069776       1.17142035
Si       4.07197499       9.56924094       2.05087918
Si       4.73226798       9.85953385      -0.63457759
Si       8.28466376       4.35753461       4.74531250
Si      -0.08402805       6.06760413       1.67424854
Si      -1.33363824       7.55318944       7.11753595
Si      -1.86647213       1.91089696       1.53492654
Si       4.85465482       7.03365239       6.19404740
Si       3.65742788       2.03124063       6.03860550
Si      -0.13538715       4.08285957       3.62575177
Si       1.12742307       5.77508213       4.80796541
Si       4.03194953       1.41190963       0.94890179
Si       5.43886453       5.96629962       2.82349939
Si       3.10891502       6.33693918       3.35348749
24
Lattice="7.940032614590071 2.5005755821202786 -0.4557318152771631 -1.944607790633149 7.37746831090267 0.06666691218021037 -0.45033738971330606 -0.22018599981444997 7.28973246919537" Properties=species:S:1:pos:R:3 unique_starting_index=90 config_type=initial n_minim_iter=17 stress="3.645000308639524e-05 1.662463746861554e-05 -0.00043691569956306694 1.662463746861554e-05 -3.826896755256755e-05 0.0006142100090330048 -0.00043691569956306694 0.0006142100090330048 0.00013008033711083358" pbc="T T T"
Si       5.42681484       1.03241080       4.50274622
Si       0.97569286       3.61052433      -0.31554109
Si       5.48370781       7.86588133       1.22633976
Si       2.02648009       1.09215429       2.08952671
Si       4.67522314       4.53557460       6.16490878
Si      -0.84340878       5.26231575       6.50677007
Si       0.38153131       2.70094973       1.77058990
Si       2.35520627       4.86684241       6.65079690
Si       0.42157558       8.11242804       4.52008401
Si       6.09819322       3.57742514       4.34668557
Si       2.25412579       6.47436232       1.18488778
Si       4.05626565       9.58535623       2.07830245
Si       4.74334686       9.87712508      -0.66473993
Si       8.31074003       4.35385169       4.74469745
Si      -0.10490988       6.06833917       1.69661333
Si      -1.31996536       7.55273736       7.08793677
Si      -1.86641357       1.91059222       1.53541576
Si       4.84677031       7.04190872       6.19266895
Si       3.67793053       2.03711475       6.02411515
Si      -0.14509694       4.11701571       3.59618095
Si       1.11363415       5.79403057       4.80948382
Si       4.03594278       1.41310370       0.94124804
Si       5.44126504       5.97522418       2.81596306
Si       3.10323419       6.32242045       3.35009215
24
Lattice="7.946320261137636 2.4944064740153222 -0.4475692811350928 -1.957081908204826 7.392767911859867 0.058790283185801026 -0.4421394606139911 -0.22571045567398076 7.273540446908124" Properties=species:S:1:pos:R:3 unique_starting_index=90 config_type=initial n_minim_iter=18 stress="-0.00010336706353264163 5.685703406008039e-05 -8.60830465493243e-05 5.685703406008039e-05 -9.750858869003083e-05 0.00036281695371996316 -8.60830465493243e-05 0.00036281695371996316 -0.00015321580928672274" pbc="T T T"
Si       5.44324728       1.00475901       4.47853235
Si       0.97572360       3.61414180      -0.31734488
Si       5.45868345       7.88249030       1.21895316
Si       2.02242233       1.08621706       2.06807572
Si       4.67041224       4.52769093       6.16119509
Si      -0.85123517       5.24343156       6.50952346
Si       0.37367200       2.69840862       1.76712693
Si       2.35212352       4.88291603       6.65194379
Si       0.43190999       8.12748378       4.49026372
Si       6.12279671       3.57760716       4.34792707
Si       2.22819578       6.49336444       1.19421275
Si       4.04280146       9.59875479       2.10039037
Si       4.75312955       9.89442805      -0.69981172
Si       8.34354287       4.34569488       4.74367562
Si      -0.12390166       6.06394697       1.71256103
Si      -1.30339404       7.54755825       7.05215099
Si      -1.86832631       1.90914716       1.53176707
Si       4.84231171       7.04045131       6.18445948
Si       3.70516230       2.03727678       6.00701586
Si      -0.15319302       4.15144636       3.56340132
Si       1.10423698       5.80732522       4.80498666
Si       4.04176202       1.41531562       0.93774165
Si       5.44736119       5.98151234       2.80648410
Si       3.10364187       6.30255357       3.34402455
24
Lattice="7.96290075439505 2.483872773093481 -0.4338255474611579 -1.9768258514602282 7.4064270044023734 0.028717734100211507 -0.4235316105826423 -0.25053168640020407 7.249614925570177" Properties=species:S:1:pos:R:3 unique_starting_index=90 config_type=initial n_minim_iter=19 stress="-0.00035831924201753775 2.106298540425959e-05 0.0007520474762341241 2.106298540425959e-05 -5.7225836716479226e-05 -0.0009999332749705137 0.0007520474762341241 -0.0009999332749705137 -6.927879836161672e-05" pbc="T T T"
Si       5.47679084       0.95561837       4.44860293
Si       0.98413781       3.60407493      -0.33046608
Si       5.42636949       7.89796817       1.20241220
Si       2.02906224       1.07992173       2.03622868
Si       4.67624755       4.50883626       6.15865244
Si      -0.85449539       5.18437738       6.50821852
Si       0.36307966       2.68672254       1.75360793
Si       2.35604438       4.88230212       6.63818109
Si       0.45659695       8.12905796       4.42578171
Si       6.15405855       3.58828122       4.33633312
Si       2.18803914       6.49831967       1.20221979
Si       4.02577357       9.60252462       2.12845712
Si       4.77696523       9.89646700      -0.76469263
Si       8.39946979       4.30556244       4.73051701
Si      -0.15699759       6.05413685       1.72011574
Si      -1.26821101       7.51534675       6.97319709
Si      -1.86222369       1.89666283       1.51280195
Si       4.84896083       7.01844791       6.16073055
Si       3.75555767       2.03032012       5.97680046
Si      -0.16700818       4.20213404       3.50044021
Si       1.08926498       5.80722747       4.78943316
Si       4.06044172       1.41591995       0.93244464
Si       5.46303645       5.96652853       2.78621694
Si       3.11331343       6.25659879       3.32842483
24
Lattice="7.9756443002556585 2.482912437429648 -0.43855318313690006 -1.9746831237725626 7.3863908498144495 0.023748511698365064 -0.42716064689530353 -0.2559456909214832 7.245883068262789" Properties=species:S:1:pos:R:3 unique_starting_index=90 config_type=initial n_minim_iter=20 stress="-0.0003161473173498586 -0.0001195410788735509 0.0003920587952639557 -0.0001195410788735509 -5.847431348385526e-05 -0.0010877366074654525 0.0003920587952639557 -0.0010877366074654525 0.00010800187601817561" pbc="T T T"
Si       5.47843266       0.96528320       4.45629429
Si       1.00196525       3.58337060      -0.32968467
Si       5.44783706       7.87648245       1.21363362
Si       2.04295056       1.09102005       2.04096295
Si       4.69014062       4.50984387       6.15547648
Si      -0.85443061       5.17325435       6.49838995
Si       0.36990278       2.68412551       1.74589240
Si       2.35709624       4.85879233       6.60722827
Si       0.46221573       8.09696543       4.42730846
Si       6.14000365       3.62197415       4.31367103
Si       2.20854763       6.45130381       1.19832631
Si       4.03149716       9.57632899       2.12328359
Si       4.78299733       9.85617871      -0.75419673
Si       8.39261628       4.27365254       4.70326141
Si      -0.15598911       6.05051031       1.69477020
Si      -1.27128443       7.50075590       6.96300172
Si      -1.86062689       1.88339851       1.49662333
Si       4.85688252       6.99245737       6.13693976
Si       3.75977132       2.02634772       5.96058530
Si      -0.16663148       4.20069350       3.49687312
Si       1.09431615       5.77932549       4.78473323
Si       4.07038552       1.41653272       0.94337027
Si       5.46408294       5.93838674       2.78294998
Si       3.12821749       6.24509305       3.33026053
24
Lattice="7.9852912736424315 2.4749971902674535 -0.43740058672388277 -1.9875653883563624 7.39811223985021 0.030250689683083046 -0.4294711355248588 -0.24943070086176772 7.229760414451491" Properties=species:S:1:pos:R:3 unique_starting_index=90 config_type=initial n_minim_iter=21 stress="1.97578593650626e-05 -6.56320538733513e-05 1.3577680821726592e-05 -6.56320538733513e-05 -9.982314606437e-05 0.00026429317836619115 1.3577680821726592e-05 0.00026429317836619115 -0.00032920011290340335" pbc="T T T"
Si       5.48809995       0.94780832       4.42880366
Si       1.00663398       3.58459905      -0.32346066
Si       5.42604917       7.88912234       1.21812093
Si       2.03552995       1.09009021       2.02001988
Si       4.67760368       4.50926187       6.14895419
Si      -0.87271070       5.17049280       6.50670871
Si       0.36494367       2.68641829       1.74630987
Si       2.34291940       4.88361777       6.60711777
Si       0.46677255       8.11297791       4.41572136
Si       6.16032130       3.63765008       4.31122290
Si       2.19111329       6.46266454       1.21285661
Si       4.01400749       9.58681258       2.15292070
Si       4.79155542       9.86717733      -0.77662488
Si       8.41743843       4.26572223       4.69496514
Si      -0.17556992       6.04677460       1.71365377
Si      -1.26725545       7.50628337       6.94336176
Si      -1.86939580       1.88140061       1.49674145
Si       4.84177868       6.99269221       6.12633558
Si       3.78241272       2.03074802       5.93824597
Si      -0.17786544       4.24190236       3.46985547
Si       1.08404314       5.79463197       4.78870197
Si       4.07547380       1.42093601       0.94371074
Si       5.46364860       5.94679783       2.77604290
Si       3.12756992       6.22774610       3.33271272
