10
Lattice="5.7011226034116635 -0.3474758359453224 -0.3447609363631453 0.09424058467461961 6.578770270570705 -1.6233003074502406 -0.17855898834026002 1.3825404256066218 5.515252535802143" Properties=species:S:1:pos:R:3 unique_starting_index=87 config_type=initial n_minim_iter=1 energy=-1627.756249647001 free_energy=-1627.756249647001 pbc="T T T"
Si       3.10118891       6.22715936       2.86102491
Si       1.69469202       2.65277563       2.58393870
Si       3.59168527       2.97969690       1.09923121
Si       0.73607878       4.15265074      -0.25158795
Si       1.38202409       1.34664566       4.46554094
Si       1.26549678       1.82112243       0.32985369
Si       5.47610702       5.96442605       2.84911350
Si       2.66159655       5.22653005       0.77288856
Si       2.65654723       4.31374550       4.31825372
Si       5.74227797       3.90987001       1.65326603
10
Lattice="5.703230467746822 -0.34635586086337444 -0.34147431538404904 0.09493409692440388 6.579448329395674 -1.6189881686469572 -0.17513341831222143 1.3856276453491234 5.5128110847908305" Properties=species:S:1:pos:R:3 unique_starting_index=87 config_type=initial n_minim_iter=2 stress="0.00023921777915195108 6.806592403504144e-05 6.524016057622966e-05 6.806592403504144e-05 0.00012685405715752806 0.0001352386371842942 6.524016057622966e-05 0.0001352386371842942 -4.45831453560199e-05" pbc="T T T"
Si       3.10537731       6.23044898       2.86431525
Si       1.69732460       2.65534812       2.58429465
Si       3.59465859       2.98176629       1.10220885
Si       0.73716223       4.15369155      -0.24825482
Si       1.38559837       1.34963920       4.46494121
Si       1.26633431       1.82198808       0.33164205
Si       5.48168006       5.96871793       2.85327143
Si       2.66425044       5.22900450       0.77669860
Si       2.66167690       4.31767444       4.31887480
Si       5.74667842       3.91244719       1.65808832
10
Lattice="5.7002826372390665 -0.3461638811378278 -0.33858608196374046 0.0942655841710958 6.577635977870148 -1.6174747716911286 -0.1723698587865755 1.3857679938450942 5.509868483160341" Properties=species:S:1:pos:R:3 unique_starting_index=87 config_type=initial n_minim_iter=3 stress="-0.0004209844975231026 0.00011807719785060613 0.0002375503482006336 0.00011807719785060613 -0.0005853654669932006 5.095325597198273e-05 0.0002375503482006336 5.095325597198273e-05 -0.0006462404944853711" pbc="T T T"
Si       3.10486170       6.22844708       2.86443079
Si       1.69733376       2.65565379       2.58250249
Si       3.59393218       2.98115283       1.10355914
Si       0.73674844       4.15280898      -0.24582361
Si       1.38735900       1.34989769       4.46443579
Si       1.26511957       1.82154441       0.33307340
Si       5.48094695       5.96798177       2.85362852
Si       2.66294624       5.22838122       0.77800760
Si       2.66376541       4.31713795       4.31643067
Si       5.74477974       3.91045695       1.66169293
10
Lattice="5.7013202504236125 -0.3470015135038181 -0.3381427125937531 0.09338380714896184 6.581137134897656 -1.617797195425218 -0.17199692397954894 1.3867426819145654 5.51185684135325" Properties=species:S:1:pos:R:3 unique_starting_index=87 config_type=initial n_minim_iter=4 stress="0.00015282921644251305 6.133356428369809e-05 0.00024878737989925256 6.133356428369809e-05 0.00020146278397874492 3.803361877187232e-05 0.00024878737989925256 3.803361877187232e-05 0.00019024452555703415" pbc="T T T"
Si       3.10460337       6.23101407       2.86562627
Si       1.69723320       2.65751402       2.58253347
Si       3.59476049       2.98236395       1.10431628
Si       0.73634101       4.15516487      -0.24443199
Si       1.38818606       1.35083843       4.46714261
Si       1.26445763       1.82235945       0.33411322
Si       5.48189795       5.97101794       2.85437492
Si       2.66249867       5.23145120       0.77867130
Si       2.66527795       4.31934219       4.31690295
Si       5.74546130       3.91095696       1.66432165
10
Lattice="5.701778296978648 -0.3479970985547662 -0.34156076214042413 0.09327052182000987 6.580716177497223 -1.6164674135195598 -0.175637138506803 1.3873545403052863 5.509953249850193" Properties=species:S:1:pos:R:3 unique_starting_index=87 config_type=initial n_minim_iter=5 stress="9.836726019676449e-05 3.6318701598392497e-06 -4.579381790381082e-05 3.6318701598392497e-06 5.9129942875988246e-05 2.810950533477116e-05 -4.579381790381082e-05 2.810950533477116e-05 -0.00010505916096073262" pbc="T T T"
Si       3.10166966       6.23036487       2.86293524
Si       1.69508345       2.65744694       2.58038315
Si       3.59387897       2.98186283       1.10160190
Si       0.73571824       4.15507975      -0.24375884
Si       1.38569692       1.35148720       4.46511950
Si       1.26348393       1.82221109       0.33380774
Si       5.47948800       5.97015821       2.85009389
Si       2.66099697       5.23112532       0.77713408
Si       2.66271344       4.31896785       4.31326768
Si       5.74361323       3.90957534       1.66178948
10
Lattice="5.698690733015377 -0.3491731980371281 -0.3436526891544506 0.09232316494130992 6.578064756772703 -1.6160243723283148 -0.17771735753472237 1.3876815894024228 5.5118066302774" Properties=species:S:1:pos:R:3 unique_starting_index=87 config_type=initial n_minim_iter=6 stress="-0.00028626876917799176 -7.002384561185222e-06 -0.00026916715093286604 -7.002384561185222e-06 -0.0003603460873314107 -4.534849146778201e-05 -0.00026916715093286604 -4.534849146778201e-05 0.00010460746851669703" pbc="T T T"
Si       3.09730407       6.22784670       2.86262804
Si       1.69265128       2.65576544       2.58089546
Si       3.59093463       2.98057138       1.09969207
Si       0.73419739       4.15382344      -0.24224601
Si       1.38477930       1.35275065       4.46696549
Si       1.26102312       1.82189962       0.33418184
Si       5.47429067       5.96669538       2.84896770
Si       2.65763793       5.22902489       0.77617639
Si       2.66045165       4.31598437       4.31262201
Si       5.73724925       3.90659732       1.66436388
10
Lattice="5.698795034387367 -0.35048490969904106 -0.3415233330036355 0.0903818222506717 6.580823895533738 -1.6158803942562818 -0.17613547226579687 1.3877546512255425 5.509141931867359" Properties=species:S:1:pos:R:3 unique_starting_index=87 config_type=initial n_minim_iter=7 stress="-0.00012137045814221158 -0.00016524778817576165 -0.0001374192755762357 -0.00016524778817576165 -9.527210930800593e-05 -0.00014542942001645275 -0.0001374192755762357 -0.00014542942001645275 -0.00012228325212504756" pbc="T T T"
Si       3.09706816       6.22954369       2.86125573
Si       1.69319702       2.65568206       2.58030831
Si       3.59064337       2.98114934       1.09933083
Si       0.73298123       4.15555646      -0.24169804
Si       1.38690827       1.35327141       4.46565778
Si       1.26027534       1.82272141       0.33427327
Si       5.47424759       5.96744467       2.84887495
Si       2.65676691       5.23060530       0.77566500
Si       2.66178207       4.31579467       4.31064539
Si       5.73627171       3.90667918       1.66668231
10
Lattice="5.698366304034701 -0.34865635420730423 -0.3389983250366259 0.09195833530282556 6.581948603985203 -1.6138306008677037 -0.17313602973661718 1.3895778757381558 5.508956298888329" Properties=species:S:1:pos:R:3 unique_starting_index=87 config_type=initial n_minim_iter=8 stress="2.6377790443285223e-05 9.788078584571899e-05 1.573314393813026e-05 9.788078584571899e-05 0.0001243555617830153 3.904087562157523e-05 1.573314393813026e-05 3.904087562157523e-05 -8.073753609723247e-06" pbc="T T T"
Si       3.10059799       6.23317612       2.86353151
Si       1.69544256       2.65706853       2.58194826
Si       3.59173854       2.98385726       1.10066781
Si       0.73388433       4.15686976      -0.23949036
Si       1.39040119       1.35588833       4.46677112
Si       1.26042497       1.82434596       0.33508903
Si       5.47766919       5.97151727       2.85306374
Si       2.65895728       5.23301843       0.77747196
Si       2.66590266       4.31779384       4.31210824
Si       5.73737766       3.90983104       1.67176577
10
Lattice="5.699501945612428 -0.35086639541434855 -0.33681434764991974 0.08870586635570338 6.579631511371164 -1.6131344939046715 -0.1715481589877796 1.3898600395550447 5.509442619099689" Properties=species:S:1:pos:R:3 unique_starting_index=87 config_type=initial n_minim_iter=9 stress="0.00016122687418272975 -0.00013158349422092116 0.00018331298517499224 -0.00013158349422092116 -4.184209484717398e-05 0.00011223015689999023 0.00018331298517499224 0.00011223015689999023 5.132436452710982e-05" pbc="T T T"
Si       3.10011202       6.23027888       2.86492770
Si       1.69592797       2.65553125       2.58328094
Si       3.59113511       2.98221824       1.10142242
Si       0.73162772       4.15532651      -0.23773127
Si       1.39263018       1.35548749       4.46873062
Si       1.25941251       1.82427021       0.33535901
Si       5.47798095       5.96824474       2.85700355
Si       2.65793089       5.23038508       0.77815503
Si       2.66706782       4.31460323       4.31317116
Si       5.73692297       3.90588677       1.67580047
10
Lattice="5.69835953399758 -0.34992365620950283 -0.337215669052788 0.08987476110182253 6.581986953354922 -1.615745912691184 -0.17189890036533864 1.3877403835389226 5.507826820064682" Properties=species:S:1:pos:R:3 unique_starting_index=87 config_type=initial n_minim_iter=10 stress="-3.043079485177883e-05 2.4869611725386348e-05 5.542352617812733e-05 2.4869611725386348e-05 1.5684890121213873e-05 -9.301124246705453e-05 5.542352617812733e-05 -9.301124246705453e-05 2.0385904635870032e-06" pbc="T T T"
Si       3.10081296       6.23082563       2.85994734
Si       1.69579220       2.65513400       2.58142681
Si       3.58972640       2.98409228       1.09783906
Si       0.73096276       4.15670603      -0.23783157
Si       1.39307323       1.35363892       4.46900924
Si       1.25831388       1.82637662       0.33343231
Si       5.47824003       5.97024410       2.85533514
Si       2.65877275       5.23187654       0.77369826
Si       2.66764525       4.31233439       4.30873354
Si       5.73550431       3.90576092       1.67458318
10
Lattice="5.6985630142850345 -0.3506817684958556 -0.33919296844396785 0.08962672102466855 6.581307787439945 -1.614062408115269 -0.17388764792752145 1.3891580649935464 5.5082881712619365" Properties=species:S:1:pos:R:3 unique_starting_index=87 config_type=initial n_minim_iter=11 stress="-4.839248856920193e-05 -2.6241668647242418e-05 -7.340398400923981e-05 -2.6241668647242418e-05 1.611895885732903e-05 0.00010440246204521747 -7.340398400923981e-05 0.00010440246204521747 -7.364059965166202e-06" pbc="T T T"
Si       3.09936701       6.23052793       2.86072071
Si       1.69437474       2.65545240       2.58165023
Si       3.58899176       2.98391520       1.09763041
Si       0.73048510       4.15644298      -0.23686263
Si       1.39126633       1.35430472       4.46895828
Si       1.25800242       1.82634544       0.33325815
Si       5.47663902       5.97002832       2.85574171
Si       2.65823476       5.23170377       0.77395976
Si       2.66553967       4.31340944       4.30859561
Si       5.73474238       3.90548814       1.67344396
10
Lattice="5.70049157293123 -0.35024467437931045 -0.33931463865602846 0.09003312082778119 6.580123779442853 -1.6155894033133498 -0.17408206077166272 1.3875273576151173 5.50790925098317" Properties=species:S:1:pos:R:3 unique_starting_index=87 config_type=initial n_minim_iter=12 stress="0.00021692514507608117 4.750092001943903e-05 -7.521663580643514e-05 4.750092001943903e-05 -0.00018145188651720883 -8.977924181013383e-07 -7.521663580643514e-05 -8.977924181013383e-07 -6.586871935024629e-06" pbc="T T T"
Si       3.10095773       6.22773317       2.85900264
Si       1.69448093       2.65382400       2.58119962
Si       3.59007589       2.98349427       1.09667963
Si       0.73065867       4.15570933      -0.23704066
Si       1.39193090       1.35279695       4.46895090
Si       1.25815813       1.82632178       0.33215439
Si       5.47878895       5.96771655       2.85526710
Si       2.66005851       5.23084108       0.77167353
Si       2.66653135       4.31175398       4.30611530
Si       5.73669899       3.90473430       1.67279176
10
Lattice="5.698427807425587 -0.3509359751400647 -0.3383225188096219 0.08901914351501845 6.58230210266996 -1.6161254728893086 -0.17325799726301605 1.387439775526994 5.507456692818879" Properties=species:S:1:pos:R:3 unique_starting_index=87 config_type=initial n_minim_iter=13 stress="6.090202535036067e-05 1.0512850717732631e-05 -1.4077693369828605e-05 1.0512850717732631e-05 -6.022236929133481e-05 -3.6978960712959817e-06 -1.4077693369828605e-05 -3.6978960712959817e-06 -9.076405114836232e-07" pbc="T T T"
Si       3.10000767       6.22840873       2.85844336
Si       1.69352912       2.65356468       2.58134490
Si       3.58828205       2.98437078       1.09649239
Si       0.72954902       4.15716857      -0.23616764
Si       1.39259629       1.35246809       4.46940962
Si       1.25708956       1.82738920       0.33148995
Si       5.47682042       5.96830965       2.85665618
Si       2.65939504       5.23262047       0.77029729
Si       2.66604881       4.31220597       4.30444854
Si       5.73410241       3.90526940       1.67422863
10
Lattice="5.697292033481402 -0.3513996062222573 -0.33783132627119505 0.08838858271461901 6.5837347560205455 -1.6165263462445838 -0.17289081597015726 1.3873194966044944 5.507063013535179" Properties=species:S:1:pos:R:3 unique_starting_index=87 config_type=initial n_minim_iter=14 stress="-1.8179229286216353e-05 1.960054026888756e-06 1.2440966633653563e-05 1.960054026888756e-06 1.2363936661560628e-05 -5.600465509634422e-06 1.2440966633653563e-05 -5.600465509634422e-06 3.779534100695491e-06" pbc="T T T"
Si       3.09924590       6.22888126       2.85787821
Si       1.69270232       2.65326126       2.58126796
Si       3.58710913       2.98494618       1.09615423
Si       0.72891037       4.15812832      -0.23553766
Si       1.39299486       1.35205262       4.46959379
Si       1.25647548       1.82812281       0.33091028
Si       5.47569903       5.96861358       2.85738527
Si       2.65921714       5.23387563       0.76908316
Si       2.66561958       4.31242647       4.30318271
Si       5.73259912       3.90558070       1.67503914
10
Lattice="5.6957808761056885 -0.3525869995640114 -0.3372331807333649 0.08692269279279072 6.586094279769745 -1.6172576513946215 -0.17262499620677244 1.3870184795263585 5.5061723444490145" Properties=species:S:1:pos:R:3 unique_starting_index=87 config_type=initial n_minim_iter=15 stress="-0.00011458734584023799 -1.0253731002017576e-05 4.061586866503077e-05 -1.0253731002017576e-05 0.00011157912904625991 -3.870964772309858e-06 4.061586866503077e-05 -3.870964772309858e-06 1.1130482935007917e-05" pbc="T T T"
Si       3.09717709       6.22947849       2.85663846
Si       1.69048712       2.65222553       2.58071799
Si       3.58489417       2.98567424       1.09524820
Si       0.72785877       4.15971852      -0.23416896
Si       1.39355547       1.35081077       4.46963839
Si       1.25556148       1.82927440       0.32962313
Si       5.47370549       5.96847213       2.85835981
Si       2.65931033       5.23613709       0.76630129
Si       2.66434418       4.31254084       4.30068903
Si       5.73021994       3.90561930       1.67637365
10
Lattice="5.697795822256513 -0.35311466576778117 -0.3380737412301612 0.08649404215242218 6.584452161351439 -1.617130521175825 -0.1736580839019906 1.3867543214103935 5.50596129666183" Properties=species:S:1:pos:R:3 unique_starting_index=87 config_type=initial n_minim_iter=16 stress="2.2217699788608812e-05 1.587815314518475e-06 -1.673492859971987e-05 1.587815314518475e-06 -2.3461003272086484e-05 2.248037237589349e-06 -1.673492859971987e-05 2.248037237589349e-06 -6.3079361273994324e-06" pbc="T T T"
Si       3.09632153       6.22822031       2.85637967
Si       1.68927995       2.65101827       2.57973606
Si       3.58540380       2.98457143       1.09479422
Si       0.72851815       4.15872134      -0.23396710
Si       1.39300390       1.34992737       4.46889236
Si       1.25641332       1.82826935       0.32937770
Si       5.47437832       5.96646148       2.85728212
Si       2.66064967       5.23521609       0.76549356
Si       2.66355873       4.31141338       4.30094897
Si       5.73193151       3.90383967       1.67569841
10
Lattice="5.698209244771259 -0.3536333130289408 -0.33759237606449394 0.08572874853759528 6.58421135757072 -1.61749268229385 -0.17338046694130438 1.3863228945216266 5.505580335314219" Properties=species:S:1:pos:R:3 unique_starting_index=87 config_type=initial n_minim_iter=17 stress="1.170829372566635e-05 -5.008822624164895e-06 -6.476570838010426e-06 -5.008822624164895e-06 4.663588877237007e-06 -4.943517639796497e-06 -6.476570838010426e-06 -4.943517639796497e-06 3.916123103367767e-06" pbc="T T T"
Si       3.09653269       6.22720425       2.85583052
Si       1.68814828       2.64955333       2.57903414
Si       3.58502151       2.98462632       1.09469723
Si       0.72862838       4.15901883      -0.23314683
Si       1.39330436       1.34951208       4.46884940
Si       1.25647876       1.82785879       0.32894581
Si       5.47376598       5.96543996       2.85813376
Si       2.66221153       5.23562343       0.76384949
Si       2.66347323       4.31033022       4.30032914
Si       5.73171482       3.90228642       1.67664026
