24
Lattice="8.298940531319412 2.638233931237063 -0.3821871330951813 -1.9355760537479123 7.445165777305077 -0.06844197257623393 -0.40502809726870975 -0.3499315565609969 6.919886245160059" Properties=species:S:1:pos:R:3 unique_starting_index=90 config_type=initial n_minim_iter=1 energy=-3908.536374056449 free_energy=-3908.536374056449 pbc="T T T"
Si       5.86972536       1.01432494       4.55300157
Si       0.90687571       3.65219032      -0.42701711
Si       5.95466712       8.07014159       1.27425857
Si       2.15974436       1.45129612       2.22874139
Si       4.68612357       4.36054069       5.89713837
Si      -1.17500473       4.51992109       5.30371131
Si       0.31353644       2.85203298       1.70347658
Si       2.32203833       4.84952475       6.30278654
Si       0.55102116       8.16695404       4.40222112
Si       6.37099778       3.97876642       4.00842828
Si       2.29441790       6.67510685       1.14901840
Si       4.29698009       9.61501227       2.18228767
Si       5.56000071      10.30805268      -0.91784386
Si       8.63445496       4.04346203       4.79474229
Si      -0.13069876       6.65527455       1.53533958
Si      -0.85836614       6.69864900       6.14698925
Si      -1.76885877       1.65889109       1.32451134
Si       5.03992989       6.85138109       5.98755695
Si       4.03531198       1.96729085       5.74518822
Si      -0.04702864       4.72257602       3.14973097
Si       1.58012364       5.98306580       4.40149484
Si       4.26516683       1.56440207       1.06093651
Si       5.77136678       6.00100270       2.65735189
Si       3.48081824       6.47565182       3.11800153
24
Lattice="8.30902090775312 2.665641364529101 -0.42071893046148257 -1.9145226094355503 7.449912417655666 -0.06827114372325292 -0.43550808520556145 -0.358981588320669 6.928995677750532" Properties=species:S:1:pos:R:3 unique_starting_index=90 config_type=initial n_minim_iter=2 stress="0.001632552822457663 0.0014676633861250058 -0.00161965233697345 0.0014676633861250058 0.0017485701953699395 -0.0006612530483222781 -0.00161965233697345 -0.0006612530483222781 0.001298318254502842" pbc="T T T"
Si       5.85285042       1.02905161       4.53767418
Si       0.91404224       3.66676503      -0.43658399
Si       5.97073471       8.09796658       1.24128998
Si       2.15423560       1.45421640       2.22440771
Si       4.67744704       4.37092518       5.88118625
Si      -1.17791630       4.51540123       5.30712685
Si       0.31166948       2.85612789       1.70062640
Si       2.31014670       4.85414129       6.30110072
Si       0.55434712       8.17800334       4.39495950
Si       6.35524496       3.99954158       3.98065766
Si       2.30856638       6.68666841       1.12285357
Si       4.31824289       9.64696338       2.15910432
Si       5.59952163      10.34406195      -0.95369504
Si       8.62793017       4.07142574       4.74989911
Si      -0.11781797       6.65459611       1.52410650
Si      -0.86411731       6.69294746       6.14792863
Si      -1.76927573       1.65873077       1.33368987
Si       5.03461590       6.86737505       5.96914092
Si       4.01267044       1.97005431       5.72807267
Si      -0.04825989       4.72093624       3.14884175
Si       1.58334798       5.99061649       4.38725732
Si       4.26008079       1.57559600       1.04134814
Si       5.77993435       6.02399758       2.63501332
Si       3.48803138       6.49005125       3.10514984
24
Lattice="8.286948253653806 2.654171790067979 -0.41713323965463417 -1.9154258627889842 7.436916263397353 -0.06530910447597854 -0.4327132877770232 -0.35493574236449227 6.9187953398708775" Properties=species:S:1:pos:R:3 unique_starting_index=90 config_type=initial n_minim_iter=3 stress="-0.0020005559406321943 0.0011378790716268074 -0.001080696423075702 0.0011378790716268074 -0.0015626825587273093 -0.0005367553677388686 -0.001080696423075702 -0.0005367553677388686 -0.0017427290087465" pbc="T T T"
Si       5.83834297       1.02567377       4.53643838
Si       0.90644066       3.66227975      -0.43468331
Si       5.94954143       8.07926763       1.24446608
Si       2.14835651       1.44900696       2.22450177
Si       4.66612891       4.36020081       5.87721068
Si      -1.17383685       4.50898411       5.29990387
Si       0.30763548       2.85187324       1.69917199
Si       2.30290886       4.84462102       6.29844420
Si       0.54721055       8.16533943       4.39195291
Si       6.33165533       3.98981219       3.97794695
Si       2.29830401       6.67122328       1.11907269
Si       4.30272249       9.63133930       2.16296428
Si       5.58160307      10.32275822      -0.94675771
Si       8.60586449       4.06114193       4.74188237
Si      -0.12163333       6.63815743       1.52130123
Si      -0.86475471       6.68016966       6.14069601
Si      -1.76542661       1.65963708       1.33338902
Si       5.01910338       6.85230915       5.96699141
Si       4.00041779       1.96298176       5.71971892
Si      -0.05164161       4.71068854       3.14683165
Si       1.57893551       5.97955447       4.38080071
Si       4.24574172       1.56874150       1.04100239
Si       5.76344077       6.01018351       2.63864699
Si       3.47639176       6.47586677       3.10755348
24
Lattice="8.288518611343095 2.636237465402867 -0.39954726602747676 -1.935023809102593 7.4471094579598525 -0.0600315158423254 -0.41979766837901755 -0.3460034347243714 6.927740670428251" Properties=species:S:1:pos:R:3 unique_starting_index=90 config_type=initial n_minim_iter=4 stress="-0.0003843375178032424 -6.691099768525014e-05 0.00021048725594321552 -6.691099768525014e-05 0.0003358744654395252 9.340807714304526e-05 0.00021048725594321552 9.340807714304526e-05 0.00037418798419369236" pbc="T T T"
Si       5.84967321       1.01894246       4.55824163
Si       0.89591642       3.66520194      -0.42959344
Si       5.93792485       8.07379824       1.26705461
Si       2.15110069       1.44588397       2.23511491
Si       4.67296443       4.35823427       5.90090409
Si      -1.17358456       4.52074748       5.30952624
Si       0.30302747       2.85610524       1.70515591
Si       2.30592606       4.84909264       6.32067737
Si       0.53577710       8.17677223       4.40864284
Si       6.33022788       3.98357502       4.00000349
Si       2.28716083       6.67132592       1.12815721
Si       4.28967999       9.63610754       2.18695315
Si       5.56458448      10.31964675      -0.92593288
Si       8.61422787       4.05151479       4.76479632
Si      -0.13413520       6.64143654       1.52802420
Si      -0.86933131       6.69188035       6.15473813
Si      -1.76822291       1.66862578       1.33535649
Si       5.01958992       6.85217132       5.99498320
Si       4.00815163       1.95948677       5.73625301
Si      -0.05766760       4.71582066       3.15730918
Si       1.57709704       5.98529158       4.39452517
Si       4.24552692       1.56021684       1.05171277
Si       5.76129843       6.00543712       2.66347139
Si       3.47115485       6.47609288       3.12885967
24
Lattice="8.312822195116876 2.6254633961589984 -0.40292486120474813 -1.9466368787562067 7.435626927123602 -0.059102075334678296 -0.42411810147216145 -0.34519412347150213 6.916558077790818" Properties=species:S:1:pos:R:3 unique_starting_index=90 config_type=initial n_minim_iter=5 stress="0.0018838000006595789 -0.0004726096240999106 -0.0002815016311899428 -0.0004726096240999106 -0.001124423927151482 -1.0373024129338757e-05 -0.0002815016311899428 -1.0373024129338757e-05 -0.0008979216662374741" pbc="T T T"
Si       5.86515425       1.01314244       4.55099765
Si       0.89551982       3.65776143      -0.42923088
Si       5.94890266       8.05628842       1.26307854
Si       2.15461531       1.43950961       2.23020702
Si       4.68218104       4.34575758       5.89038472
Si      -1.18388009       4.51325565       5.30011968
Si       0.30137367       2.85125088       1.70166834
Si       2.30766460       4.83762929       6.30885518
Si       0.52852413       8.16118661       4.40059553
Si       6.34099264       3.97255943       3.99103125
Si       2.29016213       6.65823669       1.12473857
Si       4.29467680       9.61939559       2.18135799
Si       5.57780573      10.30065896      -0.92755230
Si       8.63493889       4.04065439       4.74940128
Si      -0.13965861       6.62750786       1.52352063
Si      -0.87915863       6.67951788       6.14274722
Si      -1.77547928       1.66817241       1.33485730
Si       5.02870998       6.83592600       5.98350196
Si       4.01543235       1.95206905       5.72502742
Si      -0.06276903       4.70577872       3.15189929
Si       1.57706257       5.97255710       4.38620480
Si       4.25630504       1.55383590       1.04796057
Si       5.77472170       5.99215958       2.65911250
Si       3.47639189       6.46300299       3.12154729
24
Lattice="8.29154540774131 2.6475111247132617 -0.4033507282379845 -1.9282366542204483 7.455381857045279 -0.06051626687417735 -0.42354432089496175 -0.3483237629898746 6.912762817653587" Properties=species:S:1:pos:R:3 unique_starting_index=90 config_type=initial n_minim_iter=6 stress="-0.0003022879320219129 0.001569104697832156 0.001115780534107988 0.001569104697832156 0.0007211488741718885 0.0012627389690028643 0.001115780534107988 0.0012627389690028643 -0.0015247813107302302" pbc="T T T"
Si       5.84797676       1.03004685       4.58656153
Si       0.89282842       3.66199785      -0.42818769
Si       5.93020417       8.10416208       1.27588978
Si       2.13484782       1.42105954       2.22208025
Si       4.67813355       4.34967583       5.90462883
Si      -1.18794652       4.51735253       5.28236347
Si       0.31209103       2.86175266       1.69483811
Si       2.32237776       4.83926539       6.29609032
Si       0.52967319       8.17117591       4.39318480
Si       6.27884556       4.00261979       3.99895830
Si       2.31090408       6.68638814       1.12566787
Si       4.29069994       9.69186636       2.17763822
Si       5.61593575      10.37975207      -0.93348033
Si       8.59845534       4.09952761       4.70445546
Si      -0.12047403       6.61812130       1.49977632
Si      -0.85740931       6.68659495       6.10844302
Si      -1.76453424       1.68322589       1.34352024
Si       5.04184245       6.85870371       5.98704231
Si       3.99472208       1.95420883       5.72498622
Si      -0.05181427       4.69884136       3.14645993
Si       1.59914836       5.97850964       4.38214481
Si       4.23736416       1.56197740       1.05013852
Si       5.77744479       6.04026952       2.69127603
Si       3.48442171       6.49894838       3.10891825
24
Lattice="8.270747370973051 2.6226396918998627 -0.4286729501726723 -1.9456801517442759 7.453673972262733 -0.07643959867510874 -0.4362310079344314 -0.36519282040156015 6.934504067303912" Properties=species:S:1:pos:R:3 unique_starting_index=90 config_type=initial n_minim_iter=7 stress="-0.001031363606800498 -3.2716132539279603e-05 0.00026021797751785174 -3.2716132539279603e-05 -0.000284758066436458 -0.0005274572049380416 0.00026021797751785174 -0.0005274572049380416 0.0002564889786520242" pbc="T T T"
Si       5.82587169       1.00116414       4.59402750
Si       0.88108754       3.65534548      -0.44131367
Si       5.89162766       8.07922597       1.24950912
Si       2.11898103       1.40130492       2.21823156
Si       4.64604151       4.31296270       5.90500095
Si      -1.21299311       4.50025215       5.28501278
Si       0.30162194       2.85317989       1.69052330
Si       2.29447718       4.80767559       6.29510130
Si       0.49425844       8.14584782       4.38288605
Si       6.23722228       3.97216732       3.98972003
Si       2.28988849       6.67089667       1.10669970
Si       4.24935307       9.67249577       2.14905770
Si       5.58799110      10.36523357      -0.97658449
Si       8.55793250       4.06644764       4.67917411
Si      -0.13997078       6.60139871       1.48185242
Si      -0.88522690       6.66415422       6.10269736
Si      -1.76820182       1.68587651       1.34888223
Si       5.00495498       6.82053208       5.97810671
Si       3.96761408       1.92356673       5.72921317
Si      -0.07001666       4.68193204       3.14249599
Si       1.57432093       5.95296776       4.37516527
Si       4.22190029       1.54502833       1.04146300
Si       5.74758574       6.01616757       2.67931099
Si       3.45578179       6.47761596       3.09170200
24
Lattice="8.270585280961493 2.6104638725895324 -0.4427867563600244 -1.9577509629620937 7.460314646863579 -0.058867087791610324 -0.4516094511916726 -0.3525350358987154 6.932172720905345" Properties=species:S:1:pos:R:3 unique_starting_index=90 config_type=initial n_minim_iter=8 stress="-0.00046525108933013055 -0.0007927202234292198 -0.0011019250666671407 -0.0007927202234292198 0.00047629380427952647 0.0009785708211489017 -0.0011019250666671407 0.0009785708211489017 -5.815777133440916e-05" pbc="T T T"
Si       5.81791965       1.00032733       4.58829219
Si       0.87723793       3.65492082      -0.43858245
Si       5.87639923       8.07874399       1.25316653
Si       2.10999368       1.39688153       2.21221597
Si       4.62683993       4.31622767       5.90384698
Si      -1.23458472       4.50962171       5.29142750
Si       0.29581857       2.85496251       1.69352106
Si       2.27395034       4.81644785       6.29560525
Si       0.46887457       8.15156667       4.39477190
Si       6.21518974       3.97246885       3.98358761
Si       2.28134523       6.67170816       1.11136172
Si       4.22759976       9.68023416       2.15466074
Si       5.58310852      10.36808569      -0.97279167
Si       8.53858173       4.06846878       4.65481816
Si      -0.15200743       6.60249270       1.48858959
Si      -0.90697028       6.68054495       6.10728767
Si      -1.77376712       1.69302730       1.35711298
Si       4.98274606       6.82591134       5.97984300
Si       3.95077380       1.92645000       5.72445572
Si      -0.08162957       4.68922961       3.14876331
Si       1.55871089       5.95786113       4.37932493
Si       4.21767913       1.54130022       1.03576667
Si       5.73685368       6.02082454       2.68249095
Si       3.44145568       6.48536125       3.09451645
24
Lattice="8.301821855757709 2.6053137476741726 -0.4465037152351208 -1.9664179121589096 7.448625576013116 -0.06989596605972662 -0.4529800562117812 -0.36212365745919456 6.931908022072687" Properties=species:S:1:pos:R:3 unique_starting_index=90 config_type=initial n_minim_iter=9 stress="0.0027494304815324504 -0.0003196071073693931 -0.0008636140492010088 -0.0003196071073693931 -6.887432524616204e-05 0.0006095959753565084 -0.0008636140492010088 0.0006095959753565084 0.000985533193929702" pbc="T T T"
Si       5.84717492       0.98906947       4.61004406
Si       0.88239812       3.64924781      -0.45100835
Si       5.89177914       8.06982380       1.25174680
Si       2.11085811       1.37249359       2.20045597
Si       4.64085014       4.29377378       5.90983724
Si      -1.24626477       4.48100783       5.27761584
Si       0.30456992       2.84041462       1.68756673
Si       2.28256747       4.79672492       6.28869159
Si       0.45967709       8.11372395       4.38423106
Si       6.21028865       3.96123935       3.98566706
Si       2.29985886       6.65469009       1.09509920
Si       4.23151718       9.67694172       2.13737635
Si       5.62425095      10.37642267      -0.99453738
Si       8.55338345       4.06829942       4.61571245
Si      -0.14844226       6.57449938       1.46393610
Si      -0.90199434       6.66501870       6.07479740
Si      -1.77816751       1.69131672       1.35987310
Si       4.99988585       6.80240113       5.98132847
Si       3.95954842       1.90755926       5.73170743
Si      -0.07241060       4.67599494       3.13791899
Si       1.57333560       5.93132724       4.36606431
Si       4.23035389       1.53695486       1.03912389
Si       5.76657282       6.02486521       2.69442810
Si       3.45870696       6.48435015       3.08834853
24
Lattice="8.297570889264788 2.6038470728658467 -0.45218991968306327 -1.978924395060031 7.483235982365538 -0.09652641870052354 -0.45082423169260016 -0.38755173418815386 6.900297161769237" Properties=species:S:1:pos:R:3 unique_starting_index=90 config_type=initial n_minim_iter=10 stress="0.0022922805751744366 -0.0008807185854724214 -0.0006554282087358323 -0.0008807185854724214 0.002090368239438516 -0.0007032035245503173 -0.0006554282087358323 -0.0007032035245503173 -0.0014069462417968972" pbc="T T T"
Si       5.85480880       0.96479568       4.60855966
Si       0.87980097       3.66463462      -0.47043093
Si       5.87429050       8.09553820       1.22784362
Si       2.10453281       1.34928626       2.17697961
Si       4.62982317       4.27909313       5.88000503
Si      -1.25821189       4.46837881       5.23160007
Si       0.30822046       2.83739577       1.66782826
Si       2.27419125       4.79054618       6.24398545
Si       0.43761604       8.11314339       4.33780278
Si       6.17855107       3.95417541       3.96117895
Si       2.29878910       6.67021986       1.05999906
Si       4.20456792       9.71576693       2.09061041
Si       5.62546150      10.43676042      -1.03348077
Si       8.53006668       4.06753191       4.54761005
Si      -0.15458724       6.58337751       1.41827046
Si      -0.90251498       6.67860565       6.00108953
Si      -1.77751953       1.69738466       1.35161984
Si       4.98549177       6.79893584       5.94388293
Si       3.95230775       1.88111955       5.70972112
Si      -0.06685622       4.68680389       3.10175658
Si       1.57351721       5.92820404       4.31950114
Si       4.22473763       1.53279430       1.03615131
Si       5.76575228       6.05031994       2.68064495
Si       3.45328154       6.51073222       3.05708694
24
Lattice="8.28970792460203 2.6047760475957498 -0.4481244457811536 -1.9670293820441427 7.4550525170367195 -0.08997480310540354 -0.44845461752475657 -0.3799594165211138 6.923069608606196" Properties=species:S:1:pos:R:3 unique_starting_index=90 config_type=initial n_minim_iter=11 stress="0.0005467424544918612 0.00013747116173460115 -2.1996682261841933e-05 0.00013747116173460115 -0.00038013050718759255 0.00023213865596784228 -2.1996682261841933e-05 0.00023213865596784228 0.0004083860020050936" pbc="T T T"
Si       5.85562543       0.97188258       4.64053861
Si       0.88594995       3.65290663      -0.47482974
Si       5.87573299       8.07960702       1.24820357
Si       2.10311306       1.33990787       2.18213282
Si       4.62575005       4.27545568       5.91337546
Si      -1.25189608       4.44747629       5.25228313
Si       0.31702173       2.82394726       1.67553108
Si       2.27645447       4.78462061       6.27193112
Si       0.44329752       8.07915495       4.36392590
Si       6.16250490       3.95199459       3.98401020
Si       2.30902698       6.64989859       1.06742211
Si       4.20502396       9.69482974       2.10762669
Si       5.63978368      10.41870882      -1.03000546
Si       8.51468096       4.07468551       4.54923946
Si      -0.14360391       6.55532529       1.42026634
Si      -0.88592102       6.66489173       6.01549610
Si      -1.77014661       1.68950856       1.35936617
Si       4.98347560       6.78680696       5.98274152
Si       3.94898409       1.88040606       5.73925729
Si      -0.05018450       4.67782490       3.11270631
Si       1.58534911       5.90902595       4.33718513
Si       4.21903652       1.53256745       1.04768836
Si       5.77156786       6.05154828       2.70850825
Si       3.46083368       6.50642550       3.08058381
24
Lattice="8.260403438034801 2.620165346328793 -0.4364165438096145 -1.9504388166812792 7.465897078438899 -0.10096686765565538 -0.4354270521825212 -0.38823037333115634 6.919911423150156" Properties=species:S:1:pos:R:3 unique_starting_index=90 config_type=initial n_minim_iter=12 stress="-0.0033774638409641545 0.0007055825171821298 0.0009010218028529527 0.0007055825171821298 -0.000550199878237229 -0.00037965984812872764 0.0009010218028529527 -0.00037965984812872764 0.00010383353090389799" pbc="T T T"
Si       5.84420573       0.97982677       4.64888098
Si       0.88782205       3.65349786      -0.48270571
Si       5.87304392       8.09726919       1.24793642
Si       2.11332687       1.34926266       2.19621877
Si       4.61173431       4.29265118       5.91421643
Si      -1.23180096       4.45218813       5.25427345
Si       0.32162943       2.83006237       1.66912259
Si       2.27721812       4.79576058       6.26519586
Si       0.46522690       8.09598659       4.35994514
Si       6.15561198       3.95732771       3.97929457
Si       2.30293875       6.67395390       1.07403169
Si       4.20889916       9.69893227       2.10795628
Si       5.61474162      10.43202421      -1.03607174
Si       8.49982615       4.08216532       4.55103379
Si      -0.13695159       6.57210181       1.40705244
Si      -0.86968909       6.66575970       6.00987323
Si      -1.75484582       1.67955121       1.34861258
Si       4.96978082       6.80085409       5.99283231
Si       3.95051965       1.87795617       5.73804183
Si      -0.02670366       4.69291152       3.09566284
Si       1.59566038       5.92149231       4.32971164
Si       4.20218075       1.52989811       1.05697147
Si       5.76118276       6.06773291       2.70586522
Si       3.46155183       6.52356436       3.08404900
24
Lattice="8.272368863401624 2.6025842503966796 -0.4533732192472683 -1.9732968771910813 7.478729097146826 -0.10868612651054774 -0.4469701013011504 -0.39789188252335433 6.906169513022601" Properties=species:S:1:pos:R:3 unique_starting_index=90 config_type=initial n_minim_iter=13 stress="-0.0011625657626092203 -0.0001593248307127651 0.00028457594183819496 -0.0001593248307127651 0.00012852485853414336 -0.00023110363446746067 0.00028457594183819496 -0.00023110363446746067 -0.0005811621852040463" pbc="T T T"
Si       5.85657025       0.96325327       4.67778533
Si       0.88230883       3.64247896      -0.50370476
Si       5.85854186       8.10141076       1.24290012
Si       2.10705503       1.31468311       2.18823396
Si       4.58604814       4.27163251       5.91226413
Si      -1.26936438       4.43626022       5.23454785
Si       0.32537914       2.82388800       1.65166368
Si       2.25737309       4.78213060       6.23604391
Si       0.42902905       8.07496257       4.34574779
Si       6.09683516       3.94130326       3.95810702
Si       2.30230273       6.67940189       1.06194167
Si       4.17903447       9.71511136       2.08290488
Si       5.63195946      10.46512106      -1.07678677
Si       8.47702798       4.08670974       4.44962043
Si      -0.15127014       6.55272842       1.35916046
Si      -0.89097899       6.66009979       5.95197457
Si      -1.75540000       1.68230412       1.35075096
Si       4.94646977       6.78224493       5.99293797
Si       3.93519562       1.84329760       5.72697037
Si      -0.01633843       4.69204374       3.06368045
Si       1.59954975       5.90349156       4.30021935
Si       4.19380729       1.50938066       1.05697589
Si       5.77055566       6.08974959       2.72003195
Si       3.45981445       6.54530933       3.06748543
24
Lattice="8.313169624709582 2.5964295930646863 -0.45739822447501427 -1.984091019469886 7.46703806313779 -0.09796804215533915 -0.45498027971484534 -0.3888876917482442 6.904870389060324" Properties=species:S:1:pos:R:3 unique_starting_index=90 config_type=initial n_minim_iter=14 stress="0.003316494983627521 -0.00014765207215002097 -0.0008506432129608915 -0.00014765207215002097 0.0001301625707621713 0.00044607918276743405 -0.0008506432129608915 0.00044607918276743405 0.0004765106416976021" pbc="T T T"
Si       5.88508625       0.96787374       4.68945903
Si       0.88966985       3.62127387      -0.51215930
Si       5.89349972       8.09016829       1.25652704
Si       2.11804335       1.31663533       2.20228973
Si       4.58894681       4.27606960       5.91921238
Si      -1.28994019       4.43473278       5.24770104
Si       0.33282721       2.81849224       1.64776639
Si       2.24946710       4.78828249       6.23924248
Si       0.43188083       8.06524584       4.36392611
Si       6.11077250       3.93514615       3.94830285
Si       2.30921207       6.66955101       1.07888011
Si       4.19674544       9.68898135       2.09282322
Si       5.65554529      10.44519995      -1.08322483
Si       8.51114626       4.08551843       4.41597145
Si      -0.15796369       6.55082432       1.35634579
Si      -0.91234761       6.65128980       5.95364605
Si      -1.75699030       1.66843381       1.34672740
Si       4.95420650       6.77844755       6.01283271
Si       3.94987597       1.84338627       5.73028851
Si      -0.00258858       4.69619470       3.05213069
Si       1.61056813       5.90260386       4.30162184
Si       4.21413287       1.50721528       1.05774280
Si       5.80345955       6.09190576       2.72959112
Si       3.48247453       6.55105090       3.07621823
24
Lattice="8.290147665959116 2.592634437376026 -0.45666812010613633 -1.9837845282571347 7.471146912440796 -0.10548153694725655 -0.45101319369081594 -0.39502483497304447 6.907556422537962" Properties=species:S:1:pos:R:3 unique_starting_index=90 config_type=initial n_minim_iter=15 stress="0.0005671258959322833 3.229167174787156e-05 -0.00028497983095540825 3.229167174787156e-05 0.0002646060335378772 -4.265500592323317e-06 -0.00028497983095540825 -4.265500592323317e-06 0.0005450304727829151" pbc="T T T"
Si       5.87221071       0.95892294       4.72672171
Si       0.88546138       3.60554582      -0.53366997
Si       5.88031090       8.09443245       1.27194760
Si       2.10497172       1.30895825       2.21789962
Si       4.56546189       4.26511549       5.93392335
Si      -1.30369274       4.42402885       5.24580415
Si       0.34298993       2.81048410       1.63624919
Si       2.22800559       4.78506436       6.24576689
Si       0.43133125       8.05348565       4.37121397
Si       6.05876056       3.92979490       3.94329106
Si       2.30226825       6.65740463       1.08095836
Si       4.17869676       9.68838193       2.08819250
Si       5.64726554      10.46504918      -1.11344370
Si       8.47547872       4.08918945       4.36121566
Si      -0.16317778       6.55570402       1.33584627
Si      -0.92822672       6.64049802       5.93131234
Si      -1.73884657       1.65592586       1.33652955
Si       4.93729659       6.76985358       6.03353009
Si       3.93536908       1.83644671       5.74506231
Si       0.01235107       4.69494986       3.02964815
Si       1.61999726       5.90309280       4.29110696
Si       4.20482127       1.51275260       1.06077408
Si       5.80405144       6.10510152       2.75237001
Si       3.48981279       6.56740262       3.07706156
24
Lattice="8.284202216575334 2.590820965746468 -0.4497740356905313 -1.9842177996413615 7.4714762956880225 -0.10616479175816022 -0.44536549818230975 -0.3942261408370094 6.90292017596124" Properties=species:S:1:pos:R:3 unique_starting_index=90 config_type=initial n_minim_iter=16 stress="-0.0006597300709299803 7.60040181550729e-05 0.00023186308634846328 7.60040181550729e-05 -0.00011718877810339497 -7.127751158178373e-05 0.00023186308634846328 -7.127751158178373e-05 0.00010147244237668964" pbc="T T T"
Si       5.86828445       0.95555699       4.73736298
Si       0.88247029       3.59774438      -0.54109968
Si       5.88229482       8.09304831       1.28360652
Si       2.10418759       1.31409675       2.22837478
Si       4.56314331       4.26337453       5.93641991
Si      -1.30533071       4.42330154       5.24456586
Si       0.34589848       2.80852623       1.63103931
Si       2.22187484       4.78589326       6.24839610
Si       0.43797791       8.05391657       4.37687688
Si       6.04941538       3.92857261       3.94071230
Si       2.29675775       6.65191733       1.08820995
Si       4.17914428       9.68290433       2.09242639
Si       5.63887159      10.46700875      -1.11798410
Si       8.47178150       4.08705082       4.34758637
Si      -0.16619598       6.56637017       1.33598143
Si      -0.93757264       6.63664413       5.92698318
Si      -1.72902597       1.64699055       1.32628773
Si       4.93891428       6.76853917       6.04114824
Si       3.93621608       1.84255962       5.74853087
Si       0.01637356       4.69502973       3.02033419
Si       1.62516215       5.90898314       4.28797256
Si       4.20525202       1.51624663       1.06396194
Si       5.80975272       6.10442975       2.76076166
Si       3.49823847       6.57089156       3.07926185
24
Lattice="8.284774287472837 2.585184730020204 -0.44872799393452145 -1.9921172706151746 7.479192695618214 -0.11154954259309198 -0.4436742644329843 -0.39889915260714703 6.883892502902521" Properties=species:S:1:pos:R:3 unique_starting_index=90 config_type=initial n_minim_iter=17 stress="-0.0017887748684387431 -7.868087011520303e-05 0.0005951921249417294 -7.868087011520303e-05 -0.00033345288336535106 -0.0003573923711775732 0.0005951921249417294 -0.0003573923711775732 -0.0011137548828217762" pbc="T T T"
Si       5.86099474       0.93659632       4.76626938
Si       0.87448756       3.58009846      -0.57388273
Si       5.89282837       8.09493939       1.30095451
Si       2.10503076       1.31748575       2.24505576
Si       4.55038515       4.25203813       5.93164524
Si      -1.32533635       4.40893246       5.23163373
Si       0.35127121       2.80069868       1.60819568
Si       2.19739923       4.78035912       6.23598270
Si       0.43852776       8.04684810       4.38406642
Si       6.00878842       3.92257016       3.91762650
Si       2.28415882       6.64816870       1.09607494
Si       4.17747783       9.68346671       2.08342862
Si       5.63302641      10.49853406      -1.15783323
Si       8.45968976       4.08534151       4.26052946
Si      -0.17675099       6.59417324       1.32069254
Si      -0.97317172       6.62893887       5.89231894
Si      -1.70273574       1.62041447       1.29794733
Si       4.93992739       6.76008173       6.04982237
Si       3.93135869       1.85257367       5.74657464
Si       0.02553506       4.69634795       2.98437657
Si       1.63839750       5.91790935       4.26269939
Si       4.20590210       1.51527261       1.07195600
Si       5.83875008       6.11216452       2.77612678
Si       3.52465075       6.59005694       3.07120131
24
Lattice="8.297315154105087 2.5937632823898897 -0.44753612816627725 -1.986680861468695 7.477854524565721 -0.10612639245611098 -0.44503855920001356 -0.3944394953077121 6.88461767663138" Properties=species:S:1:pos:R:3 unique_starting_index=90 config_type=initial n_minim_iter=18 stress="-0.0010288286803561782 0.00017064300391756796 0.0006471507920718873 0.00017064300391756796 -0.00022618425473158412 0.00036698197667474786 0.0006471507920718873 0.00036698197667474786 7.84172641224381e-05" pbc="T T T"
Si       5.85766322       0.93655441       4.75008987
Si       0.87592698       3.58844633      -0.57257116
Si       5.91474265       8.09456874       1.29926908
Si       2.12010299       1.33931872       2.24555605
Si       4.56650775       4.26497539       5.92355115
Si      -1.31253181       4.41307313       5.24204634
Si       0.34373984       2.80533135       1.61011446
Si       2.20571018       4.78449304       6.23737195
Si       0.44851781       8.05908429       4.39482646
Si       6.04300415       3.92989031       3.91812161
Si       2.28155740       6.66044503       1.10354280
Si       4.20044622       9.68412995       2.08910518
Si       5.62812811      10.49789029      -1.15256706
Si       8.48341458       4.08178090       4.28638148
Si      -0.17274884       6.61665033       1.34667580
Si      -0.97255818       6.63888059       5.91694011
Si      -1.69910134       1.61032187       1.28861777
Si       4.95901473       6.77020959       6.04501160
Si       3.94140278       1.87721382       5.74474584
Si       0.01484053       4.70168928       2.99574978
Si       1.63582202       5.92822364       4.27014134
Si       4.21426246       1.51516780       1.07764658
Si       5.85214897       6.10108028       2.76123371
Si       3.53383014       6.58403359       3.07382965
24
Lattice="8.307698088539164 2.5925466148830623 -0.46357739111486373 -1.9912177287772554 7.480485042775143 -0.11307041150289619 -0.45604194677907084 -0.40365115048050454 6.882431271928991" Properties=species:S:1:pos:R:3 unique_starting_index=90 config_type=initial n_minim_iter=19 stress="0.0002627830653387998 -6.611663285559574e-05 -6.479711847701379e-05 -6.611663285559574e-05 0.00010584251705026416 0.00015921144455633953 -6.479711847701379e-05 0.00015921144455633953 2.1629418757643273e-05" pbc="T T T"
Si       5.85757048       0.92439283       4.76106040
Si       0.87624416       3.58703129      -0.58811326
Si       5.91809451       8.09663199       1.28762938
Si       2.12206684       1.32942574       2.23954449
Si       4.55711163       4.25623480       5.91751313
Si      -1.32663093       4.39818562       5.23608713
Si       0.34359193       2.80138298       1.59915584
Si       2.19759861       4.77312077       6.22102392
Si       0.43299743       8.04460675       4.38893959
Si       6.02041230       3.92344562       3.90375452
Si       2.28292865       6.66628226       1.09171106
Si       4.19630369       9.69393243       2.06774777
Si       5.64123127      10.51991132      -1.18873880
Si       8.47607993       4.08415324       4.23322622
Si      -0.17499205       6.61197331       1.32752224
Si      -0.98161504       6.63394373       5.89428998
Si      -1.69524299       1.60289810       1.28539803
Si       4.95365915       6.75918526       6.03899296
Si       3.93212433       1.86519046       5.74020063
Si       0.01620555       4.69982247       2.98205022
Si       1.63838394       5.91606928       4.25305228
Si       4.21211906       1.50541993       1.07834551
Si       5.86469243       6.10791822       2.75684560
Si       3.53777030       6.59060519       3.06115646
24
Lattice="8.319363081431002 2.5947921858889265 -0.4850072203590527 -1.9916005889994166 7.477651577323314 -0.12944863476437624 -0.4685797543117079 -0.4219434854691745 6.8863362927205065" Properties=species:S:1:pos:R:3 unique_starting_index=90 config_type=initial n_minim_iter=20 stress="0.0013912940271829336 -8.544043575595046e-05 -0.0006211425900563756 -8.544043575595046e-05 0.00032429916729931585 -0.00019437080966081593 -0.0006211425900563756 -0.00019437080966081593 -0.0001308550530921572" pbc="T T T"
Si       5.85047089       0.89876874       4.79401916
Si       0.87997971       3.57739284      -0.61688536
Si       5.93177937       8.09563384       1.27490340
Si       2.12662220       1.32677332       2.24228404
Si       4.54678124       4.24405760       5.91366242
Si      -1.34334974       4.37491674       5.23637109
Si       0.34722093       2.79501783       1.57710213
Si       2.18879767       4.75177890       6.20140762
Si       0.41842742       8.01554340       4.38650794
Si       5.98647322       3.91087034       3.88401364
Si       2.28473039       6.66601555       1.07467936
Si       4.19894382       9.70171357       2.03145371
Si       5.65652472      10.54862732      -1.26452097
Si       8.46621657       4.08526687       4.15372857
Si      -0.17615192       6.61055857       1.30239060
Si      -0.99575508       6.61668410       5.86834770
Si      -1.67936939       1.57575195       1.26893441
Si       4.95451452       6.73524727       6.03518884
Si       3.91792816       1.84620576       5.74822255
Si       0.01796540       4.69322692       2.95824400
Si       1.64878478       5.89250242       4.22770765
Si       4.21471949       1.49869019       1.08135150
Si       5.89063208       6.10920910       2.74869667
Si       3.55047636       6.59271774       3.04201450
24
Lattice="8.324431652778522 2.6016603110692382 -0.5201759139649674 -1.9828010046653985 7.461835416441358 -0.1619726108972832 -0.48624560145195006 -0.4562429572435478 6.914390093197465" Properties=species:S:1:pos:R:3 unique_starting_index=90 config_type=initial n_minim_iter=21 stress="0.0020744559110465175 -3.6429747146690504e-05 -0.000977962200898708 -3.6429747146690504e-05 0.00013474870794052585 -0.0002184452383770635 -0.000977962200898708 -0.0002184452383770635 0.00021814179489905975" pbc="T T T"
Si       5.82151313       0.84623617       4.86082060
Si       0.89133179       3.56201437      -0.65739882
Si       5.95128182       8.08316129       1.25029344
Si       2.13453938       1.34073691       2.25810667
Si       4.53654386       4.22804421       5.91592223
Si      -1.35595832       4.34462118       5.26034476
Si       0.35076322       2.78958076       1.54209965
Si       2.18463439       4.71080738       6.18342643
Si       0.39814664       7.96218204       4.38940359
Si       5.94011997       3.88541599       3.86377197
Si       2.28469416       6.65320308       1.04071413
Si       4.20936834       9.70659680       1.96677264
Si       5.66467299      10.57210065      -1.40928109
Si       8.44822433       4.07822021       4.06342213
Si      -0.17472837       6.60670202       1.27629348
Si      -1.00918969       6.57998880       5.86087825
Si      -1.64905193       1.52078928       1.23499476
Si       4.96094422       6.68574549       6.03211252
Si       3.88757437       1.80635827       5.78531710
Si       0.00568731       4.67544976       2.93368106
Si       1.66145507       5.84039556       4.19776973
Si       4.22166511       1.49664752       1.08501521
Si       5.92056227       6.08693574       2.72236050
Si       3.55930066       6.57093621       3.01401682
