24
Lattice="7.985291273642432 2.4749971902674552 -0.43740058672388266 -1.9875653883563627 7.398112239850211 0.030250689683083115 -0.4294711355248588 -0.2494307008617678 7.2297604144514915" Properties=species:S:1:pos:R:3 unique_starting_index=90 config_type=initial n_minim_iter=1 energy=-3907.592429525096 free_energy=-3907.592429525096 pbc="T T T"
Si       5.48809995       0.94780832       4.42880366
Si       1.00663398       3.58459905      -0.32346066
Si       5.42604917       7.88912234       1.21812093
Si       2.03552995       1.09009021       2.02001988
Si       4.67760368       4.50926187       6.14895419
Si      -0.87271070       5.17049280       6.50670871
Si       0.36494367       2.68641829       1.74630987
Si       2.34291940       4.88361777       6.60711777
Si       0.46677255       8.11297791       4.41572136
Si       6.16032130       3.63765008       4.31122290
Si       2.19111329       6.46266454       1.21285661
Si       4.01400749       9.58681258       2.15292070
Si       4.79155542       9.86717733      -0.77662488
Si       8.41743843       4.26572223       4.69496514
Si      -0.17556992       6.04677460       1.71365377
Si      -1.26725545       7.50628337       6.94336176
Si      -1.86939580       1.88140061       1.49674145
Si       4.84177868       6.99269221       6.12633558
Si       3.78241272       2.03074802       5.93824597
Si      -0.17786544       4.24190236       3.46985547
Si       1.08404314       5.79463197       4.78870197
Si       4.07547380       1.42093601       0.94371074
Si       5.46364860       5.94679783       2.77604290
Si       3.12756992       6.22774610       3.33271272
24
Lattice="7.98536266060091 2.4808454154880657 -0.44338356152416253 -1.984109869058106 7.402077910881443 0.01759730367069599 -0.4301731573382171 -0.2623852071133028 7.245939278646668" Properties=species:S:1:pos:R:3 unique_starting_index=90 config_type=initial n_minim_iter=2 stress="0.0008215273734572879 0.0001487326731365665 0.00018858836371716213 0.0001487326731365665 0.0012606562093972645 -0.0009547621109048042 0.00018858836371716213 -0.0009547621109048042 0.0022798143502067367" pbc="T T T"
Si       5.48736840       0.94340874       4.43546610
Si       1.00783490       3.58805703      -0.33262535
Si       5.42849351       7.89403798       1.20664334
Si       2.03455864       1.08744301       2.02318117
Si       4.67623375       4.50265091       6.15202885
Si      -0.87091973       5.16180446       6.51140930
Si       0.36645838       2.68623500       1.74706603
Si       2.34497412       4.87553796       6.61293199
Si       0.46923283       8.11047927       4.41172379
Si       6.16028088       3.63838805       4.31325658
Si       2.19487207       6.46810161       1.20484205
Si       4.01648803       9.59077152       2.14142611
Si       4.79613647       9.87803976      -0.79608266
Si       8.41827112       4.26350075       4.69840186
Si      -0.17245245       6.04932765       1.70464103
Si      -1.26588249       7.49894653       6.94551585
Si      -1.86834065       1.87904156       1.49768279
Si       4.84386607       6.98853645       6.12784364
Si       3.78303602       2.02127233       5.94892799
Si      -0.17713823       4.23841354       3.46770322
Si       1.08729153       5.79103074       4.78871742
Si       4.07593879       1.41999507       0.94232301
Si       5.46605297       5.94786802       2.77180215
Si       3.12883716       6.22659424       3.32961711
24
Lattice="7.968693075759662 2.4815417411024483 -0.4514166040528375 -1.9755403415840553 7.388296152991757 0.009092470683855023 -0.4340472787387245 -0.271742064770764 7.239074560174712" Properties=species:S:1:pos:R:3 unique_starting_index=90 config_type=initial n_minim_iter=3 stress="-0.0026970575933984884 0.00047845860437702604 9.955105978114672e-05 0.00047845860437702604 -0.0022830319561405643 -0.0018965321184026206 9.955105978114672e-05 -0.0018965321184026206 -0.0002681853899940588" pbc="T T T"
Si       5.47243669       0.93981317       4.42408159
Si       1.00704458       3.58313222      -0.34256410
Si       5.41926250       7.88051651       1.19174125
Si       2.02684837       1.08222468       2.02046065
Si       4.65884526       4.48713224       6.13195746
Si      -0.87026168       5.14296797       6.49725996
Si       0.36738042       2.68189556       1.74518939
Si       2.33980790       4.85784314       6.59847442
Si       0.46824865       8.09012202       4.39751623
Si       6.14423605       3.63756377       4.29890769
Si       2.19596981       6.46228435       1.19571057
Si       4.00876168       9.57300613       2.12617453
Si       4.79302801       9.86715026      -0.81193505
Si       8.39943387       4.25318994       4.68602230
Si      -0.16838252       6.04054569       1.68955342
Si      -1.26681309       7.47721972       6.92928423
Si      -1.86372452       1.87229205       1.49664586
Si       4.83311890       6.97068924       6.11117526
Si       3.77351029       2.00677835       5.94190808
Si      -0.17867259       4.22634942       3.45296424
Si       1.08811878       5.77641693       4.77497755
Si       4.06780857       1.41370290       0.93533601
Si       5.45687827       5.93616716       2.75890613
Si       3.12105713       6.21129773       3.31777151
24
Lattice="7.988632049489919 2.4842437086864546 -0.4555363645843736 -1.9825045213060415 7.406608512931053 0.030759602213582978 -0.44514416156484315 -0.253715883297088 7.227700446186686" Properties=species:S:1:pos:R:3 unique_starting_index=90 config_type=initial n_minim_iter=4 stress="0.0005230323997064856 0.0005317034011196903 -0.0007609638098619864 0.0005317034011196903 -0.0003319940716669371 5.037338432064994e-05 -0.0007609638098619864 5.037338432064994e-05 -1.8444655629088764e-05" pbc="T T T"
Si       5.47997722       0.95370848       4.40826069
Si       1.00794796       3.59094289      -0.34244239
Si       5.42861049       7.89839320       1.20322774
Si       2.02487910       1.08625928       2.02116791
Si       4.65169921       4.50814124       6.11898987
Si      -0.88274591       5.17057125       6.49921873
Si       0.36795060       2.69720768       1.75482407
Si       2.33828200       4.88241977       6.59798004
Si       0.45843477       8.11902401       4.41311597
Si       6.15052026       3.67000141       4.29084620
Si       2.20448698       6.49025105       1.21116694
Si       4.00901356       9.59940859       2.14609335
Si       4.80676440       9.89194179      -0.79314484
Si       8.41492084       4.27031004       4.68430138
Si      -0.17009650       6.06647551       1.69267144
Si      -1.28763079       7.51519662       6.93941042
Si      -1.87058428       1.87999508       1.50454999
Si       4.83567463       7.00099755       6.11643581
Si       3.77761668       2.01615532       5.94049471
Si      -0.18862937       4.24585406       3.44849572
Si       1.08870161       5.80395913       4.77996976
Si       4.07797229       1.40984737       0.92917105
Si       5.46845543       5.95461786       2.76480408
Si       3.11926581       6.23022747       3.32751249
24
Lattice="7.974669514461818 2.4744586080893725 -0.4385600462562837 -1.99239113415828 7.420438939811731 0.02940857553351801 -0.4298004466698274 -0.250793095564068 7.2244677106481" Properties=species:S:1:pos:R:3 unique_starting_index=90 config_type=initial n_minim_iter=5 stress="-0.0008774199357043681 -0.0003970282585581707 0.00021159771760905115 -0.0003970282585581707 0.0005846540350909025 0.00025629261026668325 0.00021159771760905115 0.00025629261026668325 0.00023411126507388906" pbc="T T T"
Si       5.48116160       0.94809038       4.41734730
Si       1.00006121       3.59450576      -0.34012036
Si       5.41183608       7.90067009       1.21710780
Si       2.02457915       1.08480638       2.02557933
Si       4.64933093       4.50777644       6.12629040
Si      -0.87744910       5.18155756       6.49648548
Si       0.36741475       2.70200283       1.75625093
Si       2.34094127       4.88726315       6.60321107
Si       0.45280096       8.13091010       4.41645146
Si       6.14555814       3.67072392       4.30237736
Si       2.19558630       6.49733789       1.21767957
Si       3.99206826       9.60676860       2.15809656
Si       4.78352465       9.89903435      -0.78037266
Si       8.40818996       4.26295863       4.70242474
Si      -0.17581084       6.07751566       1.69126157
Si      -1.28576692       7.53061483       6.93752448
Si      -1.86840625       1.88601842       1.50124045
Si       4.83110577       7.00474782       6.12740295
Si       3.78303321       2.01236692       5.94841078
Si      -0.18906128       4.25504170       3.44636055
Si       1.08865761       5.81215291       4.78212753
Si       4.07268693       1.40385663       0.93771753
Si       5.45841218       5.95457576       2.77788298
Si       3.11188422       6.23413572       3.33612607
24
Lattice="8.000545103779228 2.468171512095338 -0.42116437535745216 -2.0029112033431877 7.412546180004277 0.015406448701619467 -0.4134709846719174 -0.25915183060801233 7.2095746253823885" Properties=species:S:1:pos:R:3 unique_starting_index=90 config_type=initial n_minim_iter=6 stress="0.0016070648111402056 -4.947896499916348e-05 0.0014223955676060805 -4.947896499916348e-05 -0.0006358590165705878 -0.0005193107487198121 0.0014223955676060805 -0.0005193107487198121 -0.00073723356345268" pbc="T T T"
Si       5.51142403       0.93989783       4.41937999
Si       1.00039535       3.59092430      -0.34227764
Si       5.42975399       7.88652138       1.22049612
Si       2.03577157       1.08019543       2.02606461
Si       4.67523416       4.48945358       6.11761411
Si      -0.86718425       5.16813897       6.47340560
Si       0.37425296       2.69789202       1.74919703
Si       2.36209371       4.87194929       6.59313635
Si       0.46046811       8.11404651       4.40170740
Si       6.17444736       3.66826686       4.30245752
Si       2.20795753       6.48676879       1.21190004
Si       4.00490964       9.58921358       2.15494503
Si       4.79180908       9.88849752      -0.78126931
Si       8.44805437       4.24468708       4.71101248
Si      -0.17370517       6.07118387       1.67382202
Si      -1.27801246       7.51334948       6.91248228
Si      -1.87218839       1.88223087       1.49087825
Si       4.85957240       6.98523217       6.11994433
Si       3.81291727       1.99504325       5.94597947
Si      -0.18371714       4.25239142       3.42962891
Si       1.10321889       5.79815426       4.76673988
Si       4.08754105       1.39636316       0.94607516
Si       5.48156226       5.93988824       2.78095716
Si       3.12844540       6.21902495       3.33256115
24
Lattice="7.991134832398652 2.4624603665043674 -0.47591387750174396 -2.010932962975892 7.4298773532073294 0.02464945047700148 -0.46094954495352974 -0.26300906670590457 7.2134224179487925" Properties=species:S:1:pos:R:3 unique_starting_index=90 config_type=initial n_minim_iter=7 stress="0.00040426867550318 -0.0011080176249931362 -0.0007472286445570195 -0.0011080176249931362 0.00039566973890083084 -0.00015564828119988595 -0.0007472286445570195 -0.00015564828119988595 -5.300022936518555e-05" pbc="T T T"
Si       5.47891721       0.93778931       4.37414621
Si       0.99225534       3.60345199      -0.35368662
Si       5.40303192       7.89099138       1.19564807
Si       2.01576991       1.08288794       2.01631111
Si       4.60362539       4.46815525       6.07287296
Si      -0.91720585       5.17723407       6.46487635
Si       0.37421271       2.70688411       1.73424065
Si       2.30000045       4.87453490       6.59375694
Si       0.41450827       8.11691663       4.41329779
Si       6.12552278       3.73043133       4.24560951
Si       2.21836105       6.48891996       1.18838267
Si       3.95970529       9.59103423       2.14191095
Si       4.76450647       9.91825710      -0.83332170
Si       8.40388417       4.21598042       4.66561545
Si      -0.18390417       6.09852307       1.63322402
Si      -1.33881312       7.52205492       6.92386396
Si      -1.88148638       1.88398934       1.49563859
Si       4.80210420       6.98087690       6.09063370
Si       3.78447382       1.95461509       5.93156553
Si      -0.21417799       4.30706164       3.40372276
Si       1.07192779       5.79907004       4.74748504
Si       4.06780985       1.37970454       0.93402655
Si       5.44666463       5.93309998       2.75785234
Si       3.09865392       6.21242064       3.32588253
24
Lattice="7.989123373728296 2.4872171166921535 -0.4647325999584442 -1.985837807835746 7.425734886624298 0.03070835095613362 -0.4532837348999286 -0.25636561081818204 7.2182910285376485" Properties=species:S:1:pos:R:3 unique_starting_index=90 config_type=initial n_minim_iter=8 stress="-0.0003002524988837312 0.0005385686235785906 0.0001874283371712469 0.0005385686235785906 0.0002668294235694468 0.0005950493384647621 0.0001874283371712469 0.0005950493384647621 0.0003779107399990129" pbc="T T T"
Si       5.48138254       0.96029218       4.38340166
Si       1.00095849       3.60775955      -0.34949830
Si       5.42236452       7.91073614       1.21393778
Si       2.01913170       1.09255976       2.02233292
Si       4.61564269       4.48719135       6.08693036
Si      -0.89362123       5.18288948       6.47241738
Si       0.38503791       2.71199632       1.73820356
Si       2.31876887       4.88983887       6.60820878
Si       0.44300470       8.12353084       4.42840145
Si       6.13323643       3.76534637       4.25693737
Si       2.24076601       6.49804459       1.19982874
Si       3.98578653       9.60730584       2.16175968
Si       4.78638872       9.93735432      -0.82030688
Si       8.41295391       4.24480616       4.68544782
Si      -0.16176950       6.10337736       1.63601889
Si      -1.30770134       7.52680287       6.93710007
Si      -1.87117889       1.87985372       1.49584147
Si       4.82467110       7.00297328       6.10944801
Si       3.79553590       1.96889768       5.94411607
Si      -0.19766003       4.31849594       3.40530669
Si       1.09548309       5.80874548       4.75833530
Si       4.06735014       1.39181634       0.94316130
Si       5.46216139       5.95279272       2.77501042
Si       3.11862690       6.22560276       3.34086101
24
Lattice="8.00846057459028 2.508956302609802 -0.48719756370868395 -1.9755675695041972 7.433697709517384 -0.015008544314057933 -0.46207239841745806 -0.3041529131594655 7.190147532930014" Properties=species:S:1:pos:R:3 unique_starting_index=90 config_type=initial n_minim_iter=9 stress="-0.0003690605659903063 0.001156170908843841 0.0007215741742658673 0.001156170908843841 -0.0012431559563238644 -0.001642103076594974 0.0007215741742658673 -0.001642103076594974 -0.0028394306708678786" pbc="T T T"
Si       5.50041199       0.94056958       4.34234085
Si       1.00501743       3.61699660      -0.38051671
Si       5.44891078       7.92095755       1.17449710
Si       2.02992288       1.09074175       2.01860250
Si       4.60003176       4.43610953       6.03429581
Si      -0.90314239       5.14410666       6.38912393
Si       0.37860001       2.72277158       1.71256857
Si       2.31937401       4.84725760       6.54408769
Si       0.45005177       8.09090972       4.36824101
Si       6.13273390       3.84714102       4.17410497
Si       2.27918895       6.49684863       1.17573336
Si       4.00265738       9.61374964       2.11571956
Si       4.79206710       9.99217778      -0.91344190
Si       8.43346123       4.21078130       4.65439914
Si      -0.13993675       6.11553968       1.55438169
Si      -1.31493700       7.47867375       6.87105630
Si      -1.85932175       1.86550537       1.47164117
Si       4.84053737       6.96883914       6.04433553
Si       3.82111625       1.91010160       5.91249917
Si      -0.20243666       4.36573005       3.29875767
Si       1.11866494       5.78610495       4.70249788
Si       4.07031189       1.38371591       0.94666929
Si       5.49210321       5.93489204       2.73894834
Si       3.13911536       6.20746970       3.29400171
24
Lattice="8.010386966589003 2.488348836475924 -0.4908229419983432 -1.9863885414713451 7.406881743315496 -0.006739708428864086 -0.46577883684341376 -0.2956602452491123 7.220600510557898" Properties=species:S:1:pos:R:3 unique_starting_index=90 config_type=initial n_minim_iter=10 stress="3.265609593211196e-05 0.00024183524431963847 0.0005769931689560383 0.00024183524431963847 -0.0032452999527201624 -0.00036913674446932153 0.0005769931689560383 -0.00036913674446932153 -0.0002624959217487534" pbc="T T T"
Si       5.50435458       0.93056694       4.35698814
Si       1.00034326       3.60044301      -0.37895006
Si       5.44342563       7.88287130       1.19076598
Si       2.03099214       1.08905495       2.03075433
Si       4.59033644       4.41220139       6.06758264
Si      -0.91738496       5.12904897       6.41506379
Si       0.36947374       2.71595075       1.72129972
Si       2.30858147       4.82771051       6.57302405
Si       0.43750126       8.05797589       4.39540101
Si       6.12594355       3.84921047       4.18246568
Si       2.27354894       6.46550975       1.19320028
Si       3.99214193       9.57419250       2.13929758
Si       4.77618620       9.95177943      -0.91793145
Si       8.43025049       4.18080081       4.67965333
Si      -0.14606002       6.09441107       1.56192877
Si      -1.33169186       7.45283105       6.91096017
Si      -1.85935291       1.86043837       1.47825038
Si       4.83131999       6.93625251       6.07679036
Si       3.82136834       1.89958859       5.93788034
Si      -0.21246352       4.36937911       3.30065122
Si       1.11136061       5.76532305       4.72917702
Si       4.07039851       1.37349009       0.95528943
Si       5.49019577       5.90214296       2.75784162
Si       3.13476946       6.18013685       3.31424149
24
Lattice="8.003317969815782 2.5045609289124835 -0.5017408050103713 -1.9796131661957146 7.438870198664281 -0.007617662773296716 -0.47455335290344036 -0.3003316207529965 7.216742924400262" Properties=species:S:1:pos:R:3 unique_starting_index=90 config_type=initial n_minim_iter=11 stress="9.421471589681662e-05 -0.00020663519443772047 -0.00033547237587558626 -0.00020663519443772047 0.0007474935682032187 0.0003250170218525276 -0.00033547237587558626 0.0003250170218525276 0.0005526895237127977" pbc="T T T"
Si       5.49781247       0.92916430       4.34780081
Si       1.00166441       3.61481239      -0.37666320
Si       5.44414586       7.92071690       1.18356725
Si       2.02868936       1.10035967       2.02918187
Si       4.58480974       4.43004467       6.06782879
Si      -0.92505066       5.14522068       6.40489520
Si       0.36114739       2.72601869       1.71621256
Si       2.29736158       4.84556187       6.55876814
Si       0.43829171       8.09110804       4.38378603
Si       6.11442655       3.87618090       4.16187806
Si       2.26549361       6.48831341       1.19273094
Si       3.99587096       9.62421600       2.13189571
Si       4.77302690      10.00267435      -0.93488556
Si       8.41475756       4.19784357       4.66605352
Si      -0.14375068       6.11793732       1.56336967
Si      -1.33577780       7.47771950       6.90675297
Si      -1.85387821       1.86536432       1.47667930
Si       4.82206171       6.96366979       6.06518625
Si       3.80805459       1.91476505       5.92439341
Si      -0.21584252       4.40060317       3.28701946
Si       1.10463354       5.78854356       4.72532998
Si       4.06912293       1.38807008       0.95099775
Si       5.48816591       5.92827063       2.74660992
Si       3.13633850       6.20939885       3.30376718
24
Lattice="7.9998624646567205 2.5198070010752422 -0.5025730075926499 -1.97648968955895 7.473614854196792 -0.02750841175495883 -0.4703425923436928 -0.31993003406740617 7.201776222240653" Properties=species:S:1:pos:R:3 unique_starting_index=90 config_type=initial n_minim_iter=12 stress="0.00046165569039988716 -0.00077000605869929 -0.0005380305535183351 -0.00077000605869929 0.003015999737949374 0.0011320562089555304 -0.0005380305535183351 0.0011320562089555304 0.0009242087733496338" pbc="T T T"
Si       5.51214399       0.90491493       4.33768865
Si       0.99930491       3.62874629      -0.37859741
Si       5.45515001       7.95033274       1.17656633
Si       2.01931015       1.11786189       2.03307123
Si       4.59424431       4.42701051       6.05804450
Si      -0.92425670       5.13769685       6.36404836
Si       0.36374479       2.72770956       1.70212105
Si       2.29301143       4.84499467       6.53630180
Si       0.44442849       8.11736757       4.34595239
Si       6.10884242       3.92446162       4.12522162
Si       2.24988748       6.51650567       1.17716247
Si       4.00520850       9.68008851       2.12016656
Si       4.77010395      10.06917318      -0.97632774
Si       8.40956038       4.18200349       4.66350510
Si      -0.13694644       6.15438024       1.53882600
Si      -1.34456533       7.48754050       6.87654398
Si      -1.84550851       1.85904391       1.46933340
Si       4.82335547       6.96836026       6.04966149
Si       3.80093039       1.91382980       5.91199138
Si      -0.22425108       4.45192706       3.24345728
Si       1.10279200       5.80177987       4.69984983
Si       4.08892070       1.39581351       0.94355006
Si       5.50223128       5.94830458       2.73096791
Si       3.15271536       6.22633016       3.29152372
24
Lattice="8.005075000758145 2.525117504553804 -0.5007879765825092 -1.9655572672664836 7.446176164301147 -0.04944150288108892 -0.4632805376496448 -0.3391709337778502 7.200471424878534" Properties=species:S:1:pos:R:3 unique_starting_index=90 config_type=initial n_minim_iter=13 stress="-0.00025127405284770885 0.00024249973524139047 0.0001879107302894186 0.00024249973524139047 -0.0011284653348672322 -0.0007032961427821127 0.0001879107302894186 -0.0007032961427821127 -0.0001816812937094913" pbc="T T T"
Si       5.52210142       0.89509233       4.34143810
Si       1.00414544       3.61760274      -0.38936547
Si       5.47217102       7.92738663       1.16310968
Si       2.02315816       1.11333146       2.03032655
Si       4.60988411       4.40275118       6.04450323
Si      -0.90828260       5.09672822       6.34760114
Si       0.37337621       2.71531677       1.69798888
Si       2.30801018       4.81326582       6.52750215
Si       0.46142191       8.08152209       4.32208182
Si       6.12073022       3.91299233       4.11990420
Si       2.25800372       6.50498249       1.15950713
Si       4.02424007       9.65073160       2.10081184
Si       4.78841689      10.04881436      -1.00159883
Si       8.42182392       4.16113213       4.66393729
Si      -0.12670465       6.13994984       1.51713002
Si      -1.33111897       7.44168036       6.85408560
Si      -1.84198569       1.84225423       1.46594153
Si       4.84072270       6.93264034       6.03975412
Si       3.80636812       1.89751228       5.91207093
Si      -0.21798011       4.42708918       3.23146421
Si       1.11503255       5.77314770       4.68219717
Si       4.09815544       1.39088354       0.94021470
Si       5.51816711       5.93414895       2.71860961
Si       3.16681716       6.19913407       3.27826669
24
Lattice="8.011349286078644 2.539705265054538 -0.5085407528670839 -1.9569319712509585 7.455526252267917 -0.056757148963791776 -0.4687509534106583 -0.3485632447692735 7.190080877085094" Properties=species:S:1:pos:R:3 unique_starting_index=90 config_type=initial n_minim_iter=14 stress="8.249305359006964e-05 0.00048537861181511974 0.0003006641308854525 0.00048537861181511974 -0.0012914241784012877 -8.384446501601395e-05 0.0003006641308854525 -8.384446501601395e-05 -0.0009982890092110662" pbc="T T T"
Si       5.53077374       0.89264786       4.32978553
Si       1.00742235       3.62238196      -0.39518554
Si       5.48776589       7.94303106       1.16209169
Si       2.03147201       1.12229185       2.02469938
Si       4.60740574       4.39740234       6.02571065
Si      -0.90938740       5.08864956       6.32249393
Si       0.37508846       2.72505502       1.69130531
Si       2.30527425       4.81135963       6.51402899
Si       0.46797801       8.08523657       4.30819027
Si       6.12035717       3.96118172       4.09022691
Si       2.27153992       6.51922802       1.15378728
Si       4.03636142       9.66818567       2.09824435
Si       4.79293328      10.08419528      -1.03266414
Si       8.42517062       4.15077348       4.65853627
Si      -0.11783243       6.16452178       1.48906770
Si      -1.33423798       7.43502063       6.84139178
Si      -1.83602016       1.83499845       1.46187174
Si       4.84547635       6.93085408       6.02873390
Si       3.80849659       1.88859479       5.90107264
Si      -0.22118903       4.45946604       3.20006440
Si       1.12043802       5.77758443       4.66540291
Si       4.10225052       1.39186910       0.94191528
Si       5.53064665       5.94587630       2.70943097
Si       3.17781970       6.20093006       3.26653135
24
Lattice="8.009853008739853 2.545268759875397 -0.5068519362933467 -1.9530924006084032 7.461700668375454 -0.05273942134535616 -0.46844755690285134 -0.3449847691569739 7.189657434225316" Properties=species:S:1:pos:R:3 unique_starting_index=90 config_type=initial n_minim_iter=15 stress="-2.1056637857851122e-05 0.00013401792917187055 0.0003226938295507452 0.00013401792917187055 -0.00027154606272367955 0.00032597560039039863 0.0003226938295507452 0.00032597560039039863 -0.0003264115138349308" pbc="T T T"
Si       5.53350031       0.89143019       4.33840516
Si       1.01020684       3.62043466      -0.39053254
Si       5.49397700       7.95475874       1.17098924
Si       2.04258992       1.13051309       2.01679680
Si       4.61740576       4.41106044       6.02721181
Si      -0.90596984       5.08908839       6.32635968
Si       0.37330148       2.73078317       1.69529853
Si       2.30517560       4.82044134       6.51627487
Si       0.47399782       8.09989536       4.30628160
Si       6.12337536       3.95855402       4.09455127
Si       2.26419739       6.53374877       1.15583410
Si       4.04559259       9.68189869       2.10438760
Si       4.79347628      10.09469564      -1.03288865
Si       8.42052244       4.15193946       4.66166783
Si      -0.12079925       6.18148355       1.49519251
Si      -1.33094894       7.43950163       6.84687430
Si      -1.83324143       1.83268212       1.46584799
Si       4.84567098       6.93669434       6.03811483
Si       3.79831039       1.90624058       5.89657322
Si      -0.22192848       4.46084225       3.21181359
Si       1.11480235       5.78873911       4.66806113
Si       4.10568009       1.39919939       0.94124700
Si       5.53164866       5.96608346       2.70662314
Si       3.17997141       6.20884745       3.26202413
24
Lattice="8.01073968742786 2.5502589654425982 -0.5152122914950122 -1.9496353104248856 7.464049018917888 -0.05613408856827 -0.47453430285902615 -0.3502220033718729 7.190805807462293" Properties=species:S:1:pos:R:3 unique_starting_index=90 config_type=initial n_minim_iter=16 stress="-1.1117228515592146e-05 -3.410199603723195e-05 -2.1972977393567467e-05 -3.410199603723195e-05 0.00014378779789368608 5.0996668693025584e-05 -2.1972977393567467e-05 5.0996668693025584e-05 5.946985270362586e-05" pbc="T T T"
Si       5.53293330       0.88589283       4.33826867
Si       1.01334553       3.61832656      -0.39336563
Si       5.49935781       7.96096072       1.16576794
Si       2.04828036       1.13605073       2.01052946
Si       4.61694693       4.41175180       6.02044158
Si      -0.91002618       5.08115999       6.32292311
Si       0.37079093       2.73346669       1.69525713
Si       2.30016306       4.81828224       6.51079428
Si       0.47472696       8.10234309       4.29712910
Si       6.12241312       3.95898179       4.08582625
Si       2.26257980       6.53957306       1.14978666
Si       4.05077953       9.68603392       2.09761841
Si       4.79472134      10.10408112      -1.04954484
Si       8.41604499       4.14661048       4.65483748
Si      -0.12241431       6.19013151       1.49106941
Si      -1.33502297       7.43144573       6.84537381
Si      -1.83097430       1.82915743       1.46751525
Si       4.84293595       6.93238196       6.03499818
Si       3.78948437       1.90894775       5.89008558
Si      -0.22476380       4.46272355       3.21051088
Si       1.10989045       5.79035873       4.66392993
Si       4.10879008       1.40438971       0.93640099
Si       5.53163064       5.97453756       2.69587566
Si       3.17946216       6.20886514       3.25126804
24
Lattice="8.015370748883164 2.5574540265861665 -0.5251732782939923 -1.9447321263958475 7.465281169562233 -0.059611641535626154 -0.48224228966033494 -0.35601654797965915 7.190593469039612" Properties=species:S:1:pos:R:3 unique_starting_index=90 config_type=initial n_minim_iter=17 stress="5.195184948682499e-05 -0.00025064109941407323 -0.0004092428024257574 -0.00025064109941407323 0.0006868268349127598 -0.00024588338402977816 -0.0004092428024257574 -0.00024588338402977816 0.0005583025856521713" pbc="T T T"
Si       5.53527002       0.87507805       4.34111918
Si       1.02117840       3.61079094      -0.39851357
Si       5.51215719       7.97146298       1.16322906
Si       2.05968293       1.15151195       2.00080754
Si       4.61671893       4.41464341       6.00741264
Si      -0.91670005       5.06621795       6.31623551
Si       0.36913630       2.73941627       1.69761673
Si       2.29499116       4.81580329       6.50190921
Si       0.47590565       8.10657291       4.28243680
Si       6.12592984       3.95756876       4.07427101
Si       2.26485160       6.54756935       1.13967240
Si       4.06018606       9.68581447       2.09304325
Si       4.79615762      10.11893565      -1.07213088
Si       8.41572346       4.13553983       4.64865242
Si      -0.12580274       6.20453461       1.48637413
Si      -1.34216915       7.41335570       6.84387546
Si      -1.82520042       1.82386954       1.47038060
Si       4.84408239       6.92323119       6.03644633
Si       3.77933118       1.91293079       5.88061516
Si      -0.22808503       4.46668327       3.21031392
Si       1.10529277       5.79508446       4.65906163
Si       4.12006092       1.41737618       0.92679476
Si       5.53169921       5.98880332       2.68157985
Si       3.17710537       6.20613398       3.23579224
24
Lattice="8.022204021664882 2.5552904780666923 -0.5173658194712024 -1.945960746281402 7.457436038200457 -0.05932813823047622 -0.4764575491950946 -0.3538267558461432 7.185018598141925" Properties=species:S:1:pos:R:3 unique_starting_index=90 config_type=initial n_minim_iter=18 stress="-7.42412080324992e-05 7.734280476499125e-06 0.00010356008425789891 7.734280476499125e-06 -0.00010262154804590584 -1.408506197276894e-05 0.00010356008425789891 -1.408506197276894e-05 -4.445515674689613e-05" pbc="T T T"
Si       5.54212013       0.87011850       4.34369881
Si       1.02576756       3.60508627      -0.40036203
Si       5.52030966       7.96829716       1.17111839
Si       2.06052182       1.16150777       2.00594468
Si       4.61601563       4.41114759       6.00423207
Si      -0.91549362       5.05884411       6.30832992
Si       0.37497608       2.74018644       1.69809232
Si       2.30225470       4.81240398       6.49822789
Si       0.47634214       8.10026596       4.28025291
Si       6.13620090       3.95752810       4.07506466
Si       2.27699806       6.53915743       1.13692311
Si       4.06151713       9.66934162       2.10314498
Si       4.79576294      10.11770929      -1.06506928
Si       8.43244228       4.12950456       4.65714937
Si      -0.12206914       6.19752381       1.48677766
Si      -1.34271526       7.39950931       6.83998064
Si      -1.82093501       1.82470536       1.46710259
Si       4.85726340       6.91612711       6.04380906
Si       3.79377340       1.90490087       5.88194308
Si      -0.22410951       4.47127327       3.20576034
Si       1.11648880       5.79410622       4.65932231
Si       4.13012922       1.42266949       0.92541072
Si       5.53354921       5.98014287       2.68911534
Si       3.17618560       6.19742469       3.24142204
24
Lattice="8.035030549497106 2.5660446634738934 -0.5273940739573613 -1.9393314938876591 7.457123096675665 -0.06299014613638877 -0.48512544249140843 -0.3600712346280434 7.175924428006903" Properties=species:S:1:pos:R:3 unique_starting_index=90 config_type=initial n_minim_iter=19 stress="7.912770401087918e-05 0.00019702313127547202 3.67301257375118e-05 0.00019702313127547202 -0.00026356783058615577 0.00018010216655880474 3.67301257375118e-05 0.00018010216655880474 -0.0001286319646946234" pbc="T T T"
Si       5.54719263       0.86022309       4.33836573
Si       1.03500115       3.60573060      -0.40382913
Si       5.54171007       7.97948356       1.16497198
Si       2.07254422       1.17474644       1.99882701
Si       4.61539293       4.41187033       5.98603969
Si      -0.91892960       5.04107257       6.29104434
Si       0.37670006       2.74842298       1.69272326
Si       2.30012196       4.80816971       6.47971321
Si       0.48011776       8.10297599       4.26193311
Si       6.14796741       3.96527679       4.05415715
Si       2.28566120       6.54995524       1.12224252
Si       4.07593260       9.67370159       2.09942983
Si       4.80715970      10.14231302      -1.08364828
Si       8.44231626       4.12211408       4.64375466
Si      -0.11176231       6.20724666       1.47919626
Si      -1.35279988       7.38130980       6.82857329
Si      -1.81696482       1.82032001       1.46521364
Si       4.86467842       6.91157192       6.03474006
Si       3.79559932       1.90340575       5.86156001
Si      -0.22605294       4.48206122       3.19780380
Si       1.12063775       5.80006868       4.64586319
Si       4.13709429       1.42761546       0.91851105
Si       5.54004503       5.98565111       2.67588553
Si       3.17813692       6.19431214       3.22828294
24
Lattice="8.042445998936559 2.5668806730719242 -0.5327215068406397 -1.9407850569778375 7.457987145457754 -0.06471316629274955 -0.48983721354197574 -0.3629393457409211 7.16949069206071" Properties=species:S:1:pos:R:3 unique_starting_index=90 config_type=initial n_minim_iter=20 stress="5.75150937425268e-05 7.19525735210151e-05 -1.922164667544452e-05 7.19525735210151e-05 -0.00013929256629661635 6.366024854321574e-05 -1.922164667544452e-05 6.366024854321574e-05 -4.840013584165514e-05" pbc="T T T"
Si       5.54788299       0.85160002       4.33559069
Si       1.03883482       3.60793974      -0.40532758
Si       5.54938902       7.98293247       1.15853618
Si       2.07671217       1.17876645       1.99544702
Si       4.61248771       4.41203717       5.97536783
Si      -0.92357399       5.03287011       6.28216400
Si       0.37657550       2.75223181       1.68872330
Si       2.29761318       4.80529578       6.46653316
Si       0.47675712       8.10570042       4.25083359
Si       6.15587016       3.95503600       4.04529617
Si       2.28612259       6.55462452       1.11174826
Si       4.07761398       9.67411958       2.09488493
Si       4.81088063      10.15305157      -1.08728315
Si       8.44840327       4.11872579       4.63231854
Si      -0.10682277       6.20735556       1.48028487
Si      -1.36327778       7.37359768       6.81949506
Si      -1.81753582       1.82153808       1.46344521
Si       4.86597861       6.91007796       6.02560988
Si       3.79859484       1.90093612       5.84661287
Si      -0.22909202       4.48146159       3.19906748
Si       1.12137504       5.80459396       4.63713604
Si       4.13844569       1.42738504       0.91303928
Si       5.53869876       5.98241984       2.66813346
Si       3.17352641       6.19192389       3.22065306
24
Lattice="8.050290613828574 2.5678126093679228 -0.5377799996892725 -1.9439722190263853 7.463858087240356 -0.06944501694934758 -0.4936711949288865 -0.36856564422425336 7.159505907770327" Properties=species:S:1:pos:R:3 unique_starting_index=90 config_type=initial n_minim_iter=21 stress="-9.725793170413879e-05 -0.0001781998327410826 -7.044086435153971e-07 -0.0001781998327410826 0.0003622337947061735 -0.00015779612342596788 -7.044086435153971e-07 -0.00015779612342596788 0.00015504580345315365" pbc="T T T"
Si       5.55123453       0.83870089       4.33382329
Si       1.04174359       3.61352471      -0.40861023
Si       5.55832040       7.98902795       1.15291944
Si       2.07776916       1.18223637       1.99075145
Si       4.60876030       4.41120825       5.96019270
Si      -0.93045730       5.02501295       6.26619310
Si       0.37666945       2.75692979       1.68279732
Si       2.29445264       4.80245557       6.44870770
Si       0.47158652       8.11180361       4.23537522
Si       6.16521443       3.94517346       4.03289282
Si       2.28530675       6.56192133       1.09875876
Si       4.07681886       9.68068940       2.08737931
Si       4.81290926      10.17466215      -1.09291117
Si       8.45595078       4.11365097       4.61933550
Si      -0.09855676       6.21123752       1.47736427
Si      -1.37627573       7.36639527       6.80466362
Si      -1.81816427       1.82377959       1.45966965
Si       4.86692399       6.90980129       6.00969820
Si       3.80540909       1.89471257       5.82681356
Si      -0.23649314       4.48373347       3.19747923
Si       1.12390628       5.81309039       4.62108684
Si       4.14010909       1.42707357       0.90628071
Si       5.53699783       5.97759794       2.65875136
Si       3.16892267       6.19012715       3.20820597
