10
Lattice="5.123936923859733 -2.9561000825377696e-34 -4.294902552626602e-23 3.2662264510492406e-34 5.657500784111708 2.7412080168028078e-14 5.59101251033259e-23 -3.23190282986169e-14 6.670231767175909" Properties=species:S:1:pos:R:3 unique_starting_index=45 config_type=initial n_minim_iter=1 energy=-1626.7182871532077 free_energy=-1626.7182871532077 pbc="T T T"
Si       3.80804838       2.62251118       6.50028415
Si       1.31588855       3.03498960       6.50028415
Si       1.31588855       5.45126157       6.50028415
Si       3.80804838       0.20623921       6.50028415
Si       3.82669227       5.44142195       2.16521976
Si       1.29724465       0.21607884       2.16521976
Si       1.29724465       2.61267155       2.16521976
Si       3.82669227       3.04482923       2.16521976
Si       0.42948026       4.24312559       3.75653369
Si       4.69445666       1.41437520       3.75653369
10
Lattice="5.048561778330509 -2.9162594375307545e-34 -4.2481166758154255e-23 3.231691261478568e-34 5.604673722436206 2.7011803098317628e-14 5.644539620003805e-23 -3.293139600230379e-14 6.760971489651179" Properties=species:S:1:pos:R:3 unique_starting_index=45 config_type=initial n_minim_iter=2 stress="-0.0019225320346958248 4.8494729335966206e-17 -2.3213632591636777e-17 4.8494729335966206e-17 -0.007600625598974662 -9.159080662382436e-17 -2.3213632591636777e-17 -9.159080662382436e-17 -0.0023160383206206115" pbc="T T T"
Si       3.75568569       2.59532187       6.58794397
Si       1.29287609       3.00935185       6.58794397
Si       1.29287609       5.39765873       6.58794397
Si       3.75568569       0.20701499       6.58794397
Si       3.76793617       5.39011454       2.19651820
Si       1.28062561       0.21455918       2.19651820
Si       1.28062561       2.58777768       2.19651820
Si       3.76793617       3.01689604       2.19651820
Si       0.42074933       4.20350529       3.80548543
Si       4.62781245       1.40116843       3.80548543
10
Lattice="5.0316700611915115 -2.9026825536703287e-34 -4.3101085728902e-23 3.2587862642603415e-34 5.644427592252268 2.723181192922903e-14 5.596267661303286e-23 -3.3192131074656423e-14 6.821502586875422" Properties=species:S:1:pos:R:3 unique_starting_index=45 config_type=initial n_minim_iter=3 stress="0.0014564412176511401 3.2055397927633177e-17 -2.6933697476625867e-17 3.2055397927633177e-17 0.003812361098591505 -7.206404115298537e-17 -2.6933697476625867e-17 -7.206404115298537e-17 0.009225682436323514" pbc="T T T"
Si       3.74841143       2.61090499       6.64730222
Si       1.28325863       3.03352260       6.64730222
Si       1.28325863       5.43311879       6.64730222
Si       3.74841143       0.21130880       6.64730222
Si       3.75195078       5.42858949       2.21680752
Si       1.27971928       0.21583810       2.21680752
Si       1.27971928       2.60637569       2.21680752
Si       3.75195078       3.03805190       2.21680752
Si       0.41651990       4.23332069       3.83755577
Si       4.61515016       1.41110690       3.83755577
10
Lattice="4.97009153907878 -2.8647739986673253e-34 -4.318894853026363e-23 3.2872968430933843e-34 5.689377070290004 2.7484641381404523e-14 5.503338833759045e-23 -3.3057177786557675e-14 6.801991272991107" Properties=species:S:1:pos:R:3 unique_starting_index=45 config_type=initial n_minim_iter=4 stress="-0.00900022710290133 -6.458943648238036e-17 3.694239330182122e-17 -6.458943648238036e-17 0.0054311288118890685 9.186836967343084e-18 3.694239330182122e-17 9.186836967343084e-18 0.0031547193158250825" pbc="T T T"
Si       3.72268872       2.61964156       6.63236635
Si       1.24740282       3.06973551       6.63236635
Si       1.24740282       5.46433009       6.63236635
Si       3.72268872       0.22504698       6.63236635
Si       3.69370480       5.47245717       2.21068362
Si       1.27638674       0.21691990       2.21068362
Si       1.27638674       2.62776863       2.21068362
Si       3.69370480       3.06160844       2.21068362
Si       0.40140580       4.26703280       3.81799143
Si       4.56868574       1.42234427       3.81799143
10
Lattice="4.986804607595024 -2.878743656667756e-34 -4.3808827479839575e-23 3.284970661910661e-34 5.69368327339808 2.7497378142308145e-14 5.440092282401101e-23 -3.306764947903529e-14 6.80216033498675" Properties=species:S:1:pos:R:3 unique_starting_index=45 config_type=initial n_minim_iter=5 stress="-0.006642586424138426 2.1514994883148204e-17 -3.9089185506010954e-17 2.1514994883148204e-17 -0.0005021421667883272 -7.131194850660286e-17 -3.9089185506010954e-17 -7.131194850660286e-17 0.003947542520882335" pbc="T T T"
Si       3.76734195       2.59985112       6.63911737
Si       1.21946266       3.09383216       6.63911737
Si       1.21946266       5.44669275       6.63911737
Si       3.76734195       0.24699052       6.63911737
Si       3.68593057       5.47574898       2.21150057
Si       1.30087404       0.21793429       2.21150057
Si       1.30087404       2.62890734       2.21150057
Si       3.68593057       3.06477593       2.21150057
Si       0.38615380       4.27026246       3.80338997
Si       4.60065081       1.42342082       3.80338997
10
Lattice="5.033114519705566 -2.9090652190801673e-34 -4.462876508266747e-23 3.2949502170705588e-34 5.717979084599594 2.7586278985802684e-14 5.332060823255278e-23 -3.283752746181785e-14 6.747326281411823" Properties=species:S:1:pos:R:3 unique_starting_index=45 config_type=initial n_minim_iter=6 stress="-0.0014598073025069722 2.1500020383725802e-17 -6.80371486711323e-17 2.1500020383725802e-17 -0.0005990310973237253 1.884389050185374e-18 -6.80371486711323e-17 1.884389050185374e-18 -0.00036381323130348954" pbc="T T T"
Si       3.82069802       2.59707928       6.59145694
Si       1.21241650       3.12089980       6.59145694
Si       1.21241650       5.45606882       6.59145694
Si       3.82069802       0.26191026       6.59145694
Si       3.70723636       5.49700496       2.19457613
Si       1.32587816       0.22097413       2.19457613
Si       1.32587816       2.63801542       2.19457613
Si       3.70723636       3.07996367       2.19457613
Si       0.37665118       4.28848431       3.75920511
Si       4.65646334       1.42949477       3.75920511
10
Lattice="5.068390317863104 -2.9405832652593763e-34 -4.5169417407679845e-23 3.296432290895246e-34 5.7420166530074495 2.771930695788307e-14 5.27503243158481e-23 -3.269657508626797e-14 6.72202538584851" Properties=species:S:1:pos:R:3 unique_starting_index=45 config_type=initial n_minim_iter=7 stress="0.0023853919655155904 9.34339822279321e-17 -2.440304590133583e-16 9.34339822279321e-17 0.0007426747691975095 -2.5007278336906783e-17 -2.440304590133583e-16 -2.5007278336906783e-17 -0.0006236637434431881" pbc="T T T"
Si       3.85928331       2.59897708       6.57291972
Si       1.20910701       3.14303957       6.57291972
Si       1.20910701       5.46998541       6.57291972
Si       3.85928331       0.27203124       6.57291972
Si       3.72177012       5.51536655       2.18997499
Si       1.34662020       0.22665010       2.18997499
Si       1.34662020       2.64435822       2.18997499
Si       3.72177012       3.09765843       2.18997499
Si       0.36302297       4.30651249       3.72549455
Si       4.70536735       1.43550416       3.72549455
10
Lattice="5.061999595921917 -2.9522905926753717e-34 -4.522565242638385e-23 3.276383619204694e-34 5.736724430367841 2.7663508993940597e-14 5.269826270586851e-23 -3.277837114851821e-14 6.731638385938595" Properties=species:S:1:pos:R:3 unique_starting_index=45 config_type=initial n_minim_iter=8 stress="0.0004490285945113954 3.941533950654111e-17 -1.499364706166141e-16 3.941533950654111e-17 -0.000407182494117426 -1.60029540729136e-16 -1.499364706166141e-16 -1.60029540729136e-16 -0.0003928505664241092" pbc="T T T"
Si       3.84407580       2.60502713       6.58532073
Si       1.21792380       3.13169730       6.58532073
Si       1.21792380       5.47338935       6.58532073
Si       3.84407580       0.26333508       6.58532073
Si       3.71668276       5.50467949       2.19892524
Si       1.34531684       0.23204494       2.19892524
Si       1.34531684       2.63631727       2.19892524
Si       3.71668276       3.10040716       2.19892524
Si       0.35049343       4.30254332       3.71318296
Si       4.71150616       1.43418111       3.71318296
10
Lattice="5.047631044437722 -2.9595304963318557e-34 -4.527192784300091e-23 3.261376392178956e-34 5.7401374006213395 2.7689157973490973e-14 5.261155804452764e-23 -3.283155027608388e-14 6.744871711645274" Properties=species:S:1:pos:R:3 unique_starting_index=45 config_type=initial n_minim_iter=9 stress="-0.001532691654784428 5.149537826183693e-18 -1.4997904091566418e-16 5.149537826183693e-18 0.0009424693548128647 -6.654777828408388e-17 -1.4997904091566418e-16 -6.654777828408388e-17 0.0006142027667080909" pbc="T T T"
Si       3.83263228       2.60612119       6.59882490
Si       1.21499877       3.13401621       6.59882490
Si       1.21499877       5.47618989       6.59882490
Si       3.83263228       0.26394751       6.59882490
Si       3.70434092       5.51043549       2.20174730
Si       1.34329012       0.22970191       2.20174730
Si       1.34329012       2.64036679       2.20174730
Si       3.70434092       3.09977062       2.20174730
Si       0.34599034       4.30510305       3.72236686
Si       4.70164070       1.43503435       3.72236686
10
Lattice="5.059011098128412 -2.9811219001715917e-34 -4.558147273223758e-23 3.2348818012359627e-34 5.723614755507452 2.7607895799122486e-14 5.239447144339768e-23 -3.287088864410863e-14 6.752802533528492" Properties=species:S:1:pos:R:3 unique_starting_index=45 config_type=initial n_minim_iter=10 stress="0.0005254748119955508 -1.6590206256911526e-18 -1.8197770627902098e-16 -1.6590206256911526e-18 0.00038084255386605545 -1.3560577505193332e-16 -1.8197770627902098e-16 -1.3560577505193332e-16 0.0005927027626244904" pbc="T T T"
Si       3.83421492       2.60064981       6.60890508
Si       1.22479618       3.12296494       6.60890508
Si       1.22479618       5.46245719       6.60890508
Si       3.83421492       0.26115756       6.60890508
Si       3.71037284       5.50000859       2.20109890
Si       1.34863826       0.22360617       2.20109890
Si       1.34863826       2.63820121       2.20109890
Si       3.71037284       3.08541354       2.20109890
Si       0.33434002       4.29271107       3.72857614
Si       4.72467108       1.43090369       3.72857614
10
Lattice="5.060628652797293 -2.9885531314777226e-34 -4.574826863721134e-23 3.2275069938450985e-34 5.72333010011476 2.7620240766396404e-14 5.2169965206718494e-23 -3.284213866157065e-14 6.750200440055356" Properties=species:S:1:pos:R:3 unique_starting_index=45 config_type=initial n_minim_iter=11 stress="3.2683235266919084e-05 -2.0796716353642284e-17 -1.6439509811755502e-16 -2.0796716353642284e-17 -1.7323455976033122e-05 -7.600478975835742e-17 -1.6439509811755502e-16 -7.600478975835742e-17 -6.9761919672216e-05" pbc="T T T"
Si       3.83648898       2.60024794       6.60764897
Si       1.22413967       3.12308216       6.60764897
Si       1.22413967       5.46191299       6.60764897
Si       3.83648898       0.26141711       6.60764897
Si       3.70999910       5.49998993       2.20048863
Si       1.35062956       0.22334017       2.20048863
Si       1.35062956       2.63832488       2.20048863
Si       3.70999910       3.08500522       2.20048863
Si       0.32886176       4.29249758       3.72408251
Si       4.73176689       1.43083253       3.72408251
10
Lattice="5.066654819471118 -3.001987694263542e-34 -4.602649171798707e-23 3.211418461304155e-34 5.714921443183291 2.7645008924296452e-14 5.186829784990225e-23 -3.276506393399821e-14 6.750260175949763" Properties=species:S:1:pos:R:3 unique_starting_index=45 config_type=initial n_minim_iter=12 stress="-0.0009551153946809651 -4.991412621985161e-17 -2.7491820302029224e-16 -4.991412621985161e-17 -0.000812891045506017 -4.094595913121751e-18 -2.7491820302029224e-16 -4.094595913121751e-18 -0.0011992097459673729" pbc="T T T"
Si       3.84460143       2.59832690       6.61050429
Si       1.22205338       3.11659454       6.61050429
Si       1.22205338       5.45578762       6.61050429
Si       3.84460143       0.25913382       6.61050429
Si       3.71314916       5.49506218       2.20012439
Si       1.35350566       0.21985927       2.20012439
Si       1.35350566       2.63760146       2.20012439
Si       3.71314916       3.07731999       2.20012439
Si       0.31067359       4.28619108       3.71928924
Si       4.75598123       1.42873036       3.71928924
10
Lattice="5.071925941634166 -3.0126429780283365e-34 -4.628331322332324e-23 3.193918689759906e-34 5.6998129733054546 2.753540285550202e-14 5.170011448789297e-23 -3.286802418779139e-14 6.762739756946143" Properties=species:S:1:pos:R:3 unique_starting_index=45 config_type=initial n_minim_iter=13 stress="-0.00010601255523177912 -6.992425451469592e-17 -2.027319798428745e-16 -6.992425451469592e-17 0.00014383194283705043 -1.9238468382808426e-16 -2.027319798428745e-16 -1.9238468382808426e-16 2.5693056716358904e-05" pbc="T T T"
Si       3.85099936       2.59676758       6.62136467
Si       1.22092658       3.10304539       6.62136467
Si       1.22092658       5.44667407       6.62136467
Si       3.85099936       0.25313890       6.62136467
Si       3.72281235       5.48602632       2.20173512
Si       1.34911359       0.21378666       2.20173512
Si       1.34911359       2.63611983       2.20173512
Si       3.72281235       3.06369314       2.20173512
Si       0.30369525       4.27485973       3.73380044
Si       4.76823070       1.42495324       3.73380044
10
Lattice="5.073861643037972 -3.0166836241818327e-34 -4.646082647673109e-23 3.1892157484988023e-34 5.697416065382381 2.75086464408768e-14 5.1497728192134944e-23 -3.2890908636260483e-14 6.763790978980765" Properties=species:S:1:pos:R:3 unique_starting_index=45 config_type=initial n_minim_iter=14 stress="-1.2758576668743635e-05 1.582772045980418e-17 -2.398999782696777e-16 1.582772045980418e-17 4.8088354134511616e-05 -8.243659558274219e-17 -2.398999782696777e-16 -8.243659558274219e-17 4.5588824519341614e-05" pbc="T T T"
Si       3.85257515       2.59634911       6.62282690
Si       1.22128650       3.10106695       6.62282690
Si       1.22128650       5.44505715       6.62282690
Si       3.85257515       0.25235892       6.62282690
Si       3.72385011       5.48425303       2.20196707
Si       1.35001153       0.21316303       2.20196707
Si       1.35001153       2.63554500       2.20196707
Si       3.72385011       3.06187107       2.20196707
Si       0.30138182       4.27306205       3.73373546
Si       4.77247983       1.42435402       3.73373546
10
Lattice="5.078307156216309 -3.0233963468784473e-34 -4.676471589872256e-23 3.180911866912528e-34 5.691340120973143 2.7490274977137567e-14 5.115879235064631e-23 -3.2884667959089617e-14 6.765217660826243" Properties=species:S:1:pos:R:3 unique_starting_index=45 config_type=initial n_minim_iter=15 stress="6.555871765925498e-05 7.333928075182532e-17 -1.2463197435452031e-16 7.333928075182532e-17 -0.0001075592406415307 -1.449894876511828e-17 -1.2463197435452031e-16 -1.449894876511828e-17 -1.826871921844773e-05" pbc="T T T"
Si       3.85662929       2.59566073       6.62499374
Si       1.22167786       3.09567939       6.62499374
Si       1.22167786       5.44133079       6.62499374
Si       3.85662929       0.25000933       6.62499374
Si       3.72596784       5.47965516       2.20213897
Si       1.35233932       0.21168496       2.20213897
Si       1.35233932       2.63398510       2.20213897
Si       3.72596784       3.05735502       2.20213897
Si       0.29796426       4.26850509       3.73356834
Si       4.78034289       1.42283503       3.73356834
10
Lattice="5.078741122224494 -3.0269377897562607e-34 -4.7039107138880905e-23 3.1768088845569796e-34 5.690605890546297 2.740398556387101e-14 5.079882453217403e-23 -3.2978551711194593e-14 6.764463264813986" Properties=species:S:1:pos:R:3 unique_starting_index=45 config_type=initial n_minim_iter=16 stress="-5.2091714980987714e-06 1.074105948373592e-17 -1.5276173487979976e-16 1.074105948373592e-17 -1.552653925260339e-05 -2.022283072467729e-17 -1.5276173487979976e-16 -2.022283072467729e-17 3.0626080957569995e-05" pbc="T T T"
Si       3.85770146       2.59590468       6.62388195
Si       1.22103966       3.09470121       6.62388195
Si       1.22103966       5.44120763       6.62388195
Si       3.85770146       0.24939826       6.62388195
Si       3.72577456       5.47893671       2.20193910
Si       1.35296656       0.21166918       2.20193910
Si       1.35296656       2.63363376       2.20193910
Si       3.72577456       3.05697213       2.20193910
Si       0.30101093       4.26795442       3.73380670
Si       4.77773019       1.42265147       3.73380670
