18
Lattice="5.785763777558749 -1.1134387130048104e-24 1.2399888835959244e-40 1.2028413097564674e-24 6.250326667158218 -6.960729299180333e-16 3.0475186111096183e-46 1.241442166484228e-15 11.147422555025607" Properties=species:S:1:pos:R:3 unique_starting_index=81 config_type=initial n_minim_iter=1 energy=-2929.9309379224546 free_energy=-2929.9309379224546 pbc="T T T"
Si       2.09634601       1.87969800       2.82372231
Si       2.09634601       4.37062867       8.32370024
Si       2.09634601       1.87969800       8.32370024
Si       2.09634601       4.37062867       2.82372231
Si       5.47285161       1.92114292       3.09473280
Si       5.47285161       4.32918375       8.05268975
Si       5.47285161       1.92114292       8.05268975
Si       5.47285161       4.32918375       3.09473280
Si       3.69328204       5.05909242       4.38943918
Si       3.69328204       1.19123424       6.75798337
Si       3.69328204       5.05909242       6.75798337
Si       3.69328204       1.19123424       4.38943918
Si       4.10673698       4.44907248       9.94676531
Si       4.10673698       1.80125419       1.20065724
Si       4.10673698       4.44907248       1.20065724
Si       4.10673698       1.80125419       9.94676531
Si       2.46391043       6.25032667       9.93820214
Si       2.46391043       0.00000000       1.20922042
