20
Lattice="3.732923573718989 0.19849608825152257 -3.4457692765127584e-15 -0.30168083222487774 5.707794562926835 -3.6668324157780425e-15 1.6295692597213538e-14 1.2671417226250934e-14 18.38364577396731" Properties=species:S:1:pos:R:3 unique_starting_index=93 config_type=initial n_minim_iter=1 energy=-3260.141992860844 free_energy=-3260.141992860844 pbc="T T T"
Si       0.81105811       2.35371544      11.08425888
Si       2.62018464       3.55257521       1.89243600
Si       0.90396132       0.33449735      14.68850975
Si       2.52728143       5.57179330       5.49668687
Si       0.98109640      -0.85600513       2.07381882
Si       2.45014635       6.76229578      11.26564171
Si       0.92207869       0.45318838       4.05466227
Si       2.50916406       5.45310227      13.24648516
Si       0.75261351       3.80505407       9.21246591
Si       2.67862924       2.10123659       0.02064302
Si       2.70469104       2.10201492       3.75640455
Si       0.72655171       3.80427573      12.94822743
Si       0.88719464       0.60445457      18.59036403
Si       2.54404811       5.30183608       9.39854114
Si       2.66515149       3.27112449       5.78732508
Si       0.76609126       2.63516616      14.97914797
Si       2.59548600       3.41814024      16.42776550
Si       0.83575675       2.48815041       7.23594261
Si       0.65087897       4.86970644      16.71842572
Si       2.78036378       1.03658421       7.52660283
20
Lattice="3.7312471095001247 0.1970329775810645 -3.4432747315308627e-15 -0.30385293957711873 5.709119187170488 -3.665820041656513e-15 1.6295758397704873e-14 1.267146839225535e-14 18.383720005419406" Properties=species:S:1:pos:R:3 unique_starting_index=93 config_type=initial n_minim_iter=2 stress="-0.00018816216586978489 -0.00010953364967648371 -2.3438084866473164e-17 -0.00010953364967648371 -2.4110751911374792e-05 5.509937719382579e-16 -2.3438084866473164e-17 5.509937719382579e-16 2.8067476603801842e-05" pbc="T T T"
Si       0.80982729       2.35384755      11.08415567
Si       2.61756689       3.55230462       1.89229567
Si       0.90342362       0.33412550      14.68857768
Si       2.52397056       5.57202666       5.49671768
Si       0.98101015      -0.85652931       2.07373411
Si       2.44638403       6.76268147      11.26559411
Si       0.92150383       0.45286882       4.05460288
Si       2.50589035       5.45328335      13.24646288
Si       0.75068263       3.80552684       9.21259857
Si       2.67671155       2.10062533       0.02073856
Si       2.70270167       2.10138053       3.75646940
Si       0.72469251       3.80477164      12.94832940
Si       0.88660018       0.60412768      18.59050212
Si       2.54079400       5.30202449       9.39864212
Si       2.66261979       3.27067589       5.78746327
Si       0.76477439       2.63547627      14.97932328
Si       2.59320290       3.41773532      16.42779499
Si       0.83419128       2.48841684       7.23593499
Si       0.64862966       4.87045434      16.71851528
Si       2.77876452       1.03569783       7.52665528
20
Lattice="3.732271017002615 0.1966966586926927 -3.4439505302873057e-15 -0.3046096518492585 5.71212285688765 -3.667219633551452e-15 1.629330140675297e-14 1.2669557853179641e-14 18.38094820231498" Properties=species:S:1:pos:R:3 unique_starting_index=93 config_type=initial n_minim_iter=3 stress="0.0003095483152119105 -0.00016386532610473357 -2.9347006553501915e-17 -0.00016386532610473357 0.0005443167747544106 5.2181873505962e-16 -2.9347006553501915e-17 5.2181873505962e-16 -2.4986082279933945e-05" pbc="T T T"
Si       0.81019996       2.35487283      11.08178823
Si       2.61746141       3.55394668       1.89131413
Si       0.90357374       0.33388778      14.68644348
Si       2.52408763       5.57493173       5.49596938
Si       0.98142919      -0.85678162       2.07297582
Si       2.44623219       6.76560113      11.26344992
Si       0.92169658       0.45277540       4.05359185
Si       2.50596480       5.45604411      13.24406595
Si       0.74998065       3.80723723       9.21165596
Si       2.67768073       2.10158228       0.02118186
Si       2.70331506       2.10227595       3.75612257
Si       0.72434631       3.80654357      12.94659668
Si       0.88680847       0.60381613      18.58799963
Si       2.54085290       5.30500339       9.39752553
Si       2.66263037       3.27183117       5.78709885
Si       0.76503100       2.63698835      14.97757295
Si       2.59448115       3.41880979      16.42518902
Si       0.83318022       2.49000973       7.23471492
Si       0.64824801       4.87287616      16.71611004
Si       2.77941337       1.03594336       7.52563594
20
Lattice="3.7308192149945594 0.19722634644211773 -3.443028720491195e-15 -0.3035305490409517 5.70926698893393 -3.666207692450735e-15 1.628969200925654e-14 1.2666751210789957e-14 18.37687633579958" Properties=species:S:1:pos:R:3 unique_starting_index=93 config_type=initial n_minim_iter=4 stress="-0.00020654840830145423 6.236329670697802e-05 -3.326861684697811e-17 6.236329670697802e-05 -2.4893753426664265e-05 4.485783321513903e-16 -3.326861684697811e-17 4.485783321513903e-16 -0.0005864035696390961" pbc="T T T"
Si       0.81122748       2.35358818      11.07783551
Si       2.61606119       3.55290516       1.88939734
Si       0.90312939       0.33327453      14.68335454
Si       2.52415928       5.57321881       5.49491638
Si       0.98099128      -0.85557114       2.07152034
Si       2.44629740       6.76206447      11.25995850
Si       0.92137615       0.45223832       4.05179838
Si       2.50591253       5.45425502      13.24023654
Si       0.74926022       3.80516449       9.21059524
Si       2.67802845       2.10132885       0.02215708
Si       2.70282721       2.10197561       3.75575620
Si       0.72446147       3.80451773      12.94419437
Si       0.88662345       0.60257884      18.58451851
Si       2.54066522       5.30391450       9.39608035
Si       2.66129957       3.27024235       5.78695373
Si       0.76598910       2.63625099      14.97539190
Si       2.59613593       3.41668558      16.42129017
Si       0.83115274       2.48980776       7.23285201
Si       0.64886925       4.87049108      16.71267318
Si       2.77841943       1.03600226       7.52423501
20
Lattice="3.731023298581155 0.1970906201214351 -3.4431160719650594e-15 -0.3036935124494992 5.708118673548586 -3.6652717309349005e-15 1.630081825047668e-14 1.267540289857916e-14 18.389428172806" Properties=species:S:1:pos:R:3 unique_starting_index=93 config_type=initial n_minim_iter=5 stress="-0.00011543379179330616 5.690632012921558e-05 -1.7862134662477292e-17 5.690632012921558e-05 1.8838698595236687e-05 3.5024624881201764e-16 -1.7862134662477292e-17 3.5024624881201764e-16 0.00010349593579999988" pbc="T T T"
Si       0.81152441       2.35297140      11.08492857
Si       2.61580538       3.55223789       1.89021448
Si       0.90312280       0.33301128      14.69343054
Si       2.52420699       5.57219801       5.49871645
Si       0.98105803      -0.85526268       2.07259080
Si       2.44627177       6.76047198      11.26730489
Si       0.92141391       0.45197344       4.05425230
Si       2.50591589       5.45323585      13.24896639
Si       0.74884150       3.80433153       9.21720064
Si       2.67848829       2.10087777       0.02248655
Si       2.70300494       2.10160317       3.75845964
Si       0.72432485       3.80360612      12.95317373
Si       0.88672830       0.60212522      18.59740760
Si       2.54060150       5.30308408       9.40269351
Si       2.66102305       3.26941276       5.79130542
Si       0.76630674       2.63579653      14.98601950
Si       2.59694162       3.41560669      16.43244234
Si       0.83038817       2.48960261       7.23772825
Si       0.64884804       4.86942860      16.72418971
Si       2.77848176       1.03578070       7.52947562
20
Lattice="3.73210778861249 0.19624753212397192 -3.4434962683900236e-15 -0.3049903411226297 5.706615467007813 -3.6630860666135795e-15 1.6299916643313446e-14 1.2674701815119749e-14 18.38841104348686" Properties=species:S:1:pos:R:3 unique_starting_index=93 config_type=initial n_minim_iter=6 stress="0.00014724741650621052 -0.00012801273490873965 -2.386985638590667e-17 -0.00012801273490873965 -0.00018379911944986082 9.046163189921699e-18 -2.386985638590667e-17 9.046163189921699e-18 -1.2837484860052926e-05" pbc="T T T"
Si       0.81139088       2.35205744      11.08419302
Si       2.61572658       3.55080556       1.88998750
Si       0.90330268       0.33267034      14.69265769
Si       2.52381478       5.57019266       5.49845217
Si       0.98139570      -0.85525547       2.07229676
Si       2.44572176       6.75811847      11.26650228
Si       0.92161950       0.45157573       4.05381624
Si       2.50549796       5.45128727      13.24802176
Si       0.74806945       3.80325932       9.21678083
Si       2.67904801       2.09960368       0.02257530
Si       2.70341653       2.10065179       3.75828534
Si       0.72370092       3.80221120      12.95249086
Si       0.88705438       0.60175620      18.59640648
Si       2.54006308       5.30110680       9.40220096
Si       2.66076512       3.26798099       5.79117591
Si       0.76635233       2.63488200      14.98538143
Si       2.59747108       3.41385672      16.43160697
Si       0.82964638       2.48900628       7.23740145
Si       0.64819817       4.86789246      16.72332307
Si       2.77891928       1.03497054       7.52911755
20
Lattice="3.7327355787948306 0.19742744759973851 -3.4448660444084342e-15 -0.30345460654497936 5.710708963619801 -3.667268929089201e-15 1.6295311280855768e-14 1.267112071730319e-14 18.383215599870244" Properties=species:S:1:pos:R:3 unique_starting_index=93 config_type=initial n_minim_iter=7 stress="0.0003715042891462741 7.276224649677677e-06 3.990626460566436e-18 7.276224649677677e-06 0.0004076385085005407 -1.0227304628141946e-16 3.990626460566436e-18 -1.0227304628141946e-16 -4.912635995219914e-05" pbc="T T T"
Si       0.81343621       2.35276396      11.08043575
Si       2.61584477       3.55537245       1.88882795
Si       0.90337975       0.33253966      14.68885675
Si       2.52590123       5.57559675       5.49724895
Si       0.97948661      -0.85645908       2.06989978
Si       2.44979437       6.76459550      11.26150758
Si       0.92217750       0.45143593       4.05041360
Si       2.50710348       5.45670048      13.24202140
Si       0.74693988       3.80846338       9.21472108
Si       2.68234110       2.09967303       0.02311328
Si       2.70488270       2.10548873       3.75739937
Si       0.72439828       3.80264768      12.94900717
Si       0.88973283       0.60311951      18.59104738
Si       2.53954815       5.30501690       9.39943958
Si       2.65733094       3.27166231       5.79148044
Si       0.77195005       2.63647410      14.98308824
Si       2.60388451       3.41397445      16.42815256
Si       0.82539647       2.49416196       7.23654476
Si       0.65239415       4.87071636      16.71919778
Si       2.77688683       1.03742006       7.52758998
20
Lattice="3.731527416858032 0.1976906869188168 -3.4439765461833058e-15 -0.30278727163898345 5.707564745741745 -3.66569323444997e-15 1.6297956220917075e-14 1.2673177404299169e-14 18.386199433842947" Properties=species:S:1:pos:R:3 unique_starting_index=93 config_type=initial n_minim_iter=8 stress="-0.0002163066284418848 -5.964598661948764e-06 -1.708710116454565e-17 -5.964598661948764e-06 -0.00023096092803790225 2.4144586381835757e-16 -1.708710116454565e-17 2.4144586381835757e-16 2.360071052771996e-05" pbc="T T T"
Si       0.81351600       2.35162242      11.08268394
Si       2.61522415       3.55363301       1.88958423
Si       0.90323349       0.33231629      14.69101931
Si       2.52550667       5.57293915       5.49791959
Si       0.97820612      -0.85644277       2.06996852
Si       2.45053403       6.76169820      11.26306824
Si       0.92205705       0.45167915       4.05085344
Si       2.50668311       5.45357628      13.24395315
Si       0.74647139       3.80731853       9.21613578
Si       2.68226877       2.09793690       0.02303606
Si       2.70423233       2.10534675       3.75796860
Si       0.72450782       3.79990868      12.95106832
Si       0.89075056       0.60339451      18.59354021
Si       2.53798959       5.30186092       9.40044050
Si       2.65464964       3.27082507       5.79254689
Si       0.77409051       2.63443036      14.98564660
Si       2.60443783       3.41174401      16.43152001
Si       0.82430232       2.49351143       7.23842029
Si       0.65445435       4.86750044      16.72198728
Si       2.77428581       1.03775500       7.52888757
20
Lattice="3.7317340648116666 0.1980733077819603 -3.4444234553669164e-15 -0.30228169461334464 5.708745117407606 -3.666954992315593e-15 1.6297122340987245e-14 1.2672528985065418e-14 18.3852587095898" Properties=species:S:1:pos:R:3 unique_starting_index=93 config_type=initial n_minim_iter=9 stress="-6.662208307313031e-05 2.623999885358388e-05 -4.1321920962681104e-17 2.623999885358388e-05 -6.847616906642477e-05 1.0062832911647352e-16 -4.1321920962681104e-17 1.0062832911647352e-16 1.4985333429550695e-05" pbc="T T T"
Si       0.81475203       2.35338473      11.08173287
Si       2.61470035       3.55343370       1.88910352
Si       0.90378282       0.33103693      14.68939877
Si       2.52566956       5.57578149       5.49676942
Si       0.97691724      -0.85644865       2.06904219
Si       2.45253514       6.76326707      11.26167154
Si       0.92225427       0.45340130       4.05049858
Si       2.50719811       5.45341713      13.24312793
Si       0.74471131       3.80847237       9.21662141
Si       2.68474107       2.09834606       0.02399205
Si       2.70456386       2.10672566       3.75849459
Si       0.72488852       3.80009276      12.95112395
Si       0.89348165       0.60253703      18.59179275
Si       2.53597073       5.30428140       9.39916340
Si       2.64996309       3.27300309       5.79270041
Si       0.77948929       2.63381533      14.98532977
Si       2.60804227       3.41194446      16.43162185
Si       0.82141011       2.49487397       7.23899250
Si       0.65951768       4.86692371      16.72108087
Si       2.76993470       1.03989472       7.52845152
20
Lattice="3.7318289105650746 0.19809727882493958 -3.4445240515354553e-15 -0.30229011238094006 5.709448564650827 -3.667432400348271e-15 1.6296663372975558e-14 1.267217209473167e-14 18.384740934398707" Properties=species:S:1:pos:R:3 unique_starting_index=93 config_type=initial n_minim_iter=10 stress="1.5015910442500408e-05 1.0413256866244598e-05 -4.191753158622755e-17 1.0413256866244598e-05 2.353978824650308e-05 1.2859655707869218e-16 -4.191753158622755e-17 1.2859655707869218e-16 -2.2223230579028473e-06" pbc="T T T"
Si       0.81560498       2.35453111      11.08130367
Si       2.61393383       3.55301473       1.88893320
Si       0.90432004       0.32968046      14.68840101
Si       2.52521877       5.57786538       5.49603055
Si       0.97604000      -0.85649916       2.06860411
Si       2.45349881       6.76404500      11.26097458
Si       0.92224314       0.45473968       4.05021751
Si       2.50729567       5.45280617      13.24258798
Si       0.74278647       3.80924971       9.21703266
Si       2.68675234       2.09829613       0.02466219
Si       2.70456805       2.10750234       3.75908973
Si       0.72497076       3.80004351      12.95146020
Si       0.89564429       0.60162548      18.59053363
Si       2.53389452       5.30592036       9.39816317
Si       2.64583688       3.27456597       5.79277353
Si       0.78370193       2.63297987      14.98514400
Si       2.61103288       3.41186371      16.43181634
Si       0.81850593       2.49568214       7.23944587
Si       0.66344922       4.86624412      16.72032819
Si       2.76608958       1.04130173       7.52795772
20
Lattice="3.731990156407496 0.19787559591507398 -3.444514182765986e-15 -0.3026654223804568 5.709887053176611 -3.667401956695877e-15 1.629688758510581e-14 1.267234644052474e-14 18.384993874637733" Properties=species:S:1:pos:R:3 unique_starting_index=93 config_type=initial n_minim_iter=11 stress="9.390564927506941e-05 -1.654018617315975e-05 -3.6171774981690685e-17 -1.654018617315975e-05 9.727193255129347e-05 6.4996158170225455e-18 -3.6171774981690685e-17 6.4996158170225455e-18 -1.5003053224530386e-05" pbc="T T T"
Si       0.81667039       2.35542800      11.08193925
Si       2.61265435       3.55233465       1.88944231
Si       0.90549400       0.32709075      14.68814698
Si       2.52383074       5.58067190       5.49565004
Si       0.97527974      -0.85663627       2.06898476
Si       2.45404500       6.76439892      11.26148169
Si       0.92177473       0.45648490       4.04989199
Si       2.50755001       5.45127775      13.24238893
Si       0.73933110       3.81019582       9.21771176
Si       2.68999364       2.09756683       0.02521483
Si       2.70424211       2.10814903       3.76041067
Si       0.72508263       3.79961362      12.95290761
Si       0.89861234       0.59995741      18.58955320
Si       2.53071240       5.30780524       9.39705627
Si       2.63995512       3.27673141       5.79280803
Si       0.78936962       2.63103124      14.98530497
Si       2.61612223       3.41153092      16.43255874
Si       0.81320251       2.49623173       7.24006180
Si       0.66910019       4.86504800      16.71950382
Si       2.76022455       1.04271465       7.52700689
20
Lattice="3.7319054500460696 0.19757403689032857 -3.4442312394852195e-15 -0.30306729831016715 5.708902093995673 -3.6663668151587064e-15 1.6298258832720166e-14 1.267341271313257e-14 18.38654081903794" Properties=species:S:1:pos:R:3 unique_starting_index=93 config_type=initial n_minim_iter=12 stress="-9.711808819798593e-06 -3.4947165432372994e-06 1.580924560340475e-17 -3.4947165432372994e-06 -1.71947911283121e-05 -4.465449484403039e-16 1.580924560340475e-17 -4.465449484403039e-16 -1.92316554645279e-06" pbc="T T T"
Si       0.81616005       2.35407088      11.08405191
Si       2.61267811       3.55240525       1.89078150
Si       0.90630260       0.32622819      14.68998636
Si       2.52253556       5.58024794       5.49671595
Si       0.97625503      -0.85671730       2.07079729
Si       2.45258313       6.76319343      11.26406770
Si       0.92080129       0.45600867       4.05008795
Si       2.50803687       5.45046746      13.24335836
Si       0.73849687       3.80984749       9.21767884
Si       2.69034129       2.09662864       0.02440843
Si       2.70353635       2.10743741       3.76105894
Si       0.72530181       3.79903872      12.95432935
Si       0.89820700       0.59944339      18.59099495
Si       2.53063116       5.30703275       9.39772454
Si       2.64062224       3.27669751       5.79261027
Si       0.78821592       2.62977863      14.98588068
Si       2.61739790       3.41123577      16.43293258
Si       0.81144026       2.49524037       7.23966217
Si       0.66890022       4.86484392      16.71992636
Si       2.75993794       1.04163221       7.52665595
20
Lattice="3.731740611409091 0.19810449374789474 -3.444450754180837e-15 -0.3022749006006048 5.709504157925228 -3.667484203569612e-15 1.6297584169596976e-14 1.2672888099780296e-14 18.385779711904906" Properties=species:S:1:pos:R:3 unique_starting_index=93 config_type=initial n_minim_iter=13 stress="-6.437946572064123e-06 1.8550978208120365e-05 -2.0507451406823667e-17 1.8550978208120365e-05 2.9165637453399422e-05 -4.2901376379753075e-16 -2.0507451406823667e-17 -4.2901376379753075e-16 4.506067534259637e-05" pbc="T T T"
Si       0.81491426       2.35468483      11.08412132
Si       2.61455145       3.55292383       1.89123146
Si       0.90867116       0.32584592      14.68817713
Si       2.52079456       5.58176274       5.49528727
Si       0.97660677      -0.85676577       2.07132754
Si       2.45285895       6.76437442      11.26421740
Si       0.91890939       0.45634179       4.05052893
Si       2.51055633       5.45126686      13.24341879
Si       0.73794282       3.81021250       9.21723083
Si       2.69152290       2.09739616       0.02434097
Si       2.70230381       2.10875195       3.76100959
Si       0.72716191       3.79885671      12.95389945
Si       0.90015997       0.59888354      18.59072745
Si       2.52930575       5.30872512       9.39783759
Si       2.63947369       3.27934513       5.79229719
Si       0.78999203       2.62826353      14.98518705
Si       2.62132298       3.41096017      16.43070603
Si       0.80814274       2.49664848       7.23781618
Si       0.67262087       4.86485022      16.71976020
Si       2.75684485       1.04275843       7.52687034
20
Lattice="3.7320076218578504 0.197646701134332 -3.444371892727884e-15 -0.30295715918871124 5.708765005031037 -3.666369952827853e-15 1.629515867044611e-14 1.2671002048510049e-14 18.383043435619097" Properties=species:S:1:pos:R:3 unique_starting_index=93 config_type=initial n_minim_iter=14 stress="2.1808085157291095e-05 -5.1530871559546494e-05 -1.7048908475371505e-17 -5.1530871559546494e-05 -8.121365376366976e-05 -4.350386759560082e-16 -1.7048908475371505e-17 -4.350386759560082e-16 -0.0001641185646882881" pbc="T T T"
Si       0.81395912       2.35417677      11.08187403
Si       2.61509135       3.55223494       1.89035231
Si       0.91038085       0.32504424      14.68614516
Si       2.51866962       5.58136746       5.49462344
Si       0.97773040      -0.85688554       2.07110970
Si       2.45132007       6.76329724      11.26263141
Si       0.91775281       0.45626813       4.04992051
Si       2.51129766       5.45014358      13.24144223
Si       0.73660784       3.80968110       9.21596414
Si       2.69244263       2.09673060       0.02444242
Si       2.70116453       2.10852565       3.76076602
Si       0.72788594       3.79788606      12.95228774
Si       0.90093328       0.59895368      18.58848693
Si       2.52811719       5.30745802       9.39696521
Si       2.63805225       3.27899318       5.79127572
Si       0.79099822       2.62741853      14.98279744
Si       2.62237673       3.40916696      16.42779508
Si       0.80667374       2.49724475       7.23627336
Si       0.67386669       4.86385895      16.71730829
Si       2.75518378       1.04255275       7.52578657
