24
Lattice="8.494393007655317 -1.1603793252881191e-12 8.672437905563707e-15 4.247196503828662 7.356360134357829 -2.1925341910272266e-14 4.247196503827979 2.4521200447856075 14.850877662068923" Properties=species:S:1:pos:R:3 unique_starting_index=24 config_type=initial n_minim_iter=1 energy=-3907.8850303921668 free_energy=-3907.8850303921668 pbc="T T T"
Si       9.51291600       4.37115120      15.76560769
Si       8.44679918       6.05285132      15.76560769
Si       7.52346257       4.28871701      15.76560769
Si       9.49881147       4.06377118      10.56233754
Si       8.72005036       6.19432645      10.56233754
Si       7.26431592       4.45462190      10.56233754
Si      10.17101702       3.94809586       2.59712057
Si       8.48412535       6.83431119       2.59712057
Si       6.82803538       3.93031249       2.59712057
Si       9.46635313       5.48409974       3.47034477
Si       7.50623891       5.45605243       3.47034477
Si       8.51058570       3.77256737       3.47034477
Si      10.70042874       7.43003219      11.65606382
Si       5.20397417       5.55182703      11.65606382
Si       9.57877484       1.73086032      11.65606382
Si      11.18997206       3.76368139      12.07023535
Si       8.13435545       7.80895938      12.07023535
Si       6.15885024       3.14007877      12.07023535
Si       9.61167211       9.06357747      10.50889504
Si       4.33366077       3.79216349      10.50889504
Si      11.53784487       1.85697858      10.50889504
Si       4.29353903       1.32647261       2.49016480
Si       5.19886367       3.05507757       2.49016480
Si       3.24918554       2.97480923       2.49016480
24
Lattice="8.47270290909229 -1.1601064800722943e-12 8.743606706122756e-15 4.23635145454715 7.3375759579916595 -2.1926444820170824e-14 4.236351454546466 2.4458586526635515 14.875133435104708" Properties=species:S:1:pos:R:3 unique_starting_index=24 config_type=initial n_minim_iter=2 stress="-0.003370041399900479 3.9089414680143716e-16 2.947313054046462e-16 3.9089414680143716e-16 -0.00337004139990013 6.032687615716282e-17 2.947313054046462e-16 6.032687615716282e-17 -0.0025117559262430836" pbc="T T T"
Si       9.48746732       4.36046359      15.79101188
Si       8.42539907       6.03615592      15.79101188
Si       7.50524107       4.27853167      15.79101188
Si       9.47473819       4.05308167      10.57984993
Si       8.69796419       6.17882313      10.57984993
Si       7.24540508       4.44324638      10.57984993
Si      10.14537910       3.93832672       2.60145363
Si       8.46202443       6.81699267       2.60145363
Si       6.81070393       3.91983179       2.60145363
Si       9.44207028       5.46872180       3.47584870
Si       7.48831783       5.44271183       3.47584870
Si       8.48771935       3.76371756       3.47584870
Si      10.67333805       7.41042075      11.67506293
Si       5.19112333       5.53817152      11.67506293
Si       9.55364608       1.72655892      11.67506293
Si      11.16070690       3.75399999      12.08965615
Si       8.11399217       7.78845571      12.08965615
Si       6.14340839       3.13269549      12.08965615
Si       9.58718314       9.04060538      10.52603638
Si       4.32241948       3.78244147      10.52603638
Si      11.50850484       1.85210434      10.52603638
Si       4.28221130       1.32330801       2.49474417
Si       5.18557806       3.04684977       2.49474417
Si       3.24126373       2.96741745       2.49474417
24
Lattice="8.476861614005193 -1.1728907552629188e-12 8.83388476117027e-15 4.2384308070036125 7.34117750209307 -2.2060478257674478e-14 4.238430807002924 2.4470591673640185 15.03402702607325" Properties=species:S:1:pos:R:3 unique_starting_index=24 config_type=initial n_minim_iter=3 stress="0.00023792399980309708 6.524373579983129e-16 -2.4208297750392113e-17 6.524373579983129e-16 0.00023792399980392587 8.695406949313638e-16 -2.4208297750392113e-17 8.695406949313638e-16 0.004653807667960883" pbc="T T T"
Si       9.48589573       4.36509310      15.95787254
Si       8.43049300       6.03248013      15.95787254
Si       7.51419484       4.28478104      15.95787254
Si       9.48052489       4.05322127      10.69436566
Si       8.70326735       6.18376476      10.69436566
Si       7.24679134       4.44536824      10.69436566
Si      10.15161627       3.94230124       2.62938797
Si       8.46378122       6.82040696       2.62938797
Si       6.81518608       3.91964607       2.62938797
Si       9.44685839       5.46427670       3.51254661
Si       7.49809076       5.44908100       3.51254661
Si       8.48563443       3.76899658       3.51254661
Si      10.68007010       7.41027169      11.79960188
Si       5.19620380       5.54407618      11.79960188
Si       9.55430967       1.72800640      11.79960188
Si      11.16216365       3.75552557      12.21712842
Si       8.12026001       7.78895450      12.21712842
Si       6.14815992       3.13787421      12.21712842
Si       9.59240056       9.04599346      10.63824600
Si       4.32346197       3.78426584      10.63824600
Si      11.51472105       1.85209498      10.63824600
Si       4.28229563       1.32619105       2.52405664
Si       5.18719781       3.04548127       2.52405664
Si       3.24579771       2.96950445       2.52405664
24
Lattice="8.486104761049983 -1.192720880999144e-12 8.944351550583995e-15 4.243052380526025 7.349182302244763 -2.2288574052350015e-14 4.243052380525325 2.4497274340812436 14.944007583340179" Properties=species:S:1:pos:R:3 unique_starting_index=24 config_type=initial n_minim_iter=4 stress="-0.0007294213539471942 6.725686422887998e-16 -6.146748484254706e-17 6.725686422887998e-16 -0.0007294213539464423 8.34546185921849e-16 -6.146748484254706e-17 8.34546185921849e-16 -0.0001988369515256824" pbc="T T T"
Si       9.48674063       4.37340159      15.86317029
Si       8.44136148       6.02905759      15.86317029
Si       7.53021090       4.29590469      15.86317029
Si       9.49275238       4.05453324      10.63292669
Si       8.71450370       6.19369809      10.63292669
Si       7.25105693       4.45013254      10.63292669
Si      10.16312872       3.94835279       2.61458951
Si       8.47127050       6.82735126       2.61458951
Si       6.82391380       3.92265983       2.61458951
Si       9.45738202       5.46272312       3.49005958
Si       7.51266068       5.45897152       3.49005958
Si       8.48827032       3.77666923       3.49005958
Si      10.69399197       7.41221680      11.72848480
Si       5.20604465       5.55516031      11.72848480
Si       9.55827640       1.73098676      11.72848480
Si      11.16773159       3.75910793      12.14100121
Si       8.13285991       7.79198530      12.14100121
Si       6.15772150       3.14727064      12.14100121
Si       9.60408338       9.05729948      10.57455747
Si       4.32631554       3.78873045      10.57455747
Si      11.52791409       1.85233394      10.57455747
Si       4.28383100       1.33069778       2.50943669
Si       5.19177033       3.04455758       2.50943669
Si       3.25355454       2.97392621       2.50943669
24
Lattice="8.502601179492299 -1.2151864397891005e-12 8.976338877541395e-15 4.2513005897472045 7.363468619687256 -2.2402774138521852e-14 4.251300589746489 2.4544895398953996 14.89616620287753" Properties=species:S:1:pos:R:3 unique_starting_index=24 config_type=initial n_minim_iter=5 stress="-0.0007603996036825203 8.261538707084773e-16 1.289823802467774e-16 8.261538707084773e-16 -0.0007603996036812918 5.575348203837396e-16 1.289823802467774e-16 5.575348203837396e-16 -0.00031952513195304227" pbc="T T T"
Si       9.49644323       4.38390543      15.81265069
Si       8.46040643       6.03220837      15.81265069
Si       7.55095261       4.31082271      15.81265069
Si       9.51324130       4.05796835      10.60263657
Si       8.73427718       6.20972446      10.60263657
Si       7.26028379       4.45924369      10.60263657
Si      10.18704736       3.95068393       2.60695540
Si       8.49028519       6.84689984       2.60695540
Si       6.83046972       3.92935274       2.60695540
Si       9.47489957       5.47072211       3.47672734
Si       7.52996740       5.47014267       3.47672734
Si       8.50293530       3.78607172       3.47672734
Si      10.71808659       7.41722140      11.68986978
Si       5.22265606       5.57352457      11.68986978
Si       9.56705962       1.73619054      11.68986978
Si      11.17944978       3.76532798      12.09762276
Si       8.15460694       7.79902353      12.09762276
Si       6.17374554       3.16258500      12.09762276
Si       9.62480820       9.07707422      10.54115268
Si       4.33182054       3.79679130      10.54115268
Si      11.55117352       1.85307098      10.54115268
Si       4.28757989       1.32822419       2.50394183
Si       5.20853450       3.04904101       2.50394183
Si       3.25778611       2.98620269       2.50394183
24
Lattice="8.518361406580237 -1.2659675978191942e-12 9.023614394036125e-15 4.259180703291219 7.377117376714794 -2.2417893795492715e-14 4.259180703290472 2.4590391255712287 14.866493653940482" Properties=species:S:1:pos:R:3 unique_starting_index=24 config_type=initial n_minim_iter=6 stress="3.5592668272337764e-05 9.709144868194566e-16 2.932351892566719e-16 9.709144868194566e-16 3.5592668272967136e-05 6.591998357879469e-16 2.932351892566719e-16 6.591998357879469e-16 0.00011244243022247801" pbc="T T T"
Si       9.50454534       4.38797218      15.77861318
Si       8.48435391       6.03719163      15.77861318
Si       7.56618369       4.32907021      15.77861318
Si       9.53303070       4.05368449      10.59159831
Si       8.75961287       6.22900452      10.59159831
Si       7.26243938       4.47154501      10.59159831
Si      10.19799358       3.94595290       2.60912509
Si       8.52042972       6.85874506       2.60912509
Si       6.83665964       3.94953606       2.60912509
Si       9.48617130       5.48443702       3.45805102
Si       7.54397453       5.47304682       3.45805102
Si       8.52493711       3.79675018       3.45805102
Si      10.74695031       7.40290035      11.66204159
Si       5.25214705       5.60568181      11.66204159
Si       9.55598559       1.74565186      11.66204159
Si      11.17107813       3.76754949      12.06050949
Si       8.18838934       7.79066270      12.06050949
Si       6.19561548       3.19602183      12.06050949
Si       9.64880899       9.10047690      10.52311061
Si       4.33107329       3.80587525      10.52311061
Si      11.57520067       1.84788187      10.52311061
Si       4.28287209       1.33310074       2.51040216
Si       5.22242540       3.04252567       2.51040216
Si       3.27224334       3.00149024       2.51040216
24
Lattice="8.521081410926751 -1.3013400216598409e-12 9.052859307914792e-15 4.260540705464508 7.3794729695772645 -2.2400736702302478e-14 4.260540705463739 2.459824323192041 14.802435332490868" Properties=species:S:1:pos:R:3 unique_starting_index=24 config_type=initial n_minim_iter=7 stress="0.002202457140836928 1.5284164952514598e-15 -1.8416381057189433e-16 1.5284164952514598e-15 0.002202457140838397 7.245784379997507e-16 -1.8416381057189433e-16 7.245784379997507e-16 -0.0010080067041699813" pbc="T T T"
Si       9.51417911       4.37616683      15.71405104
Si       8.49520077       6.05143739      15.71405104
Si       7.55386308       4.33134098      15.71405104
Si       9.52959984       4.04774797      10.55169131
Si       8.77190948       6.22900157      10.55169131
Si       7.26173363       4.48219567      10.55169131
Si      10.20711359       3.93963836       2.59925225
Si       8.52677828       6.86980049       2.59925225
Si       6.82935109       3.94950636       2.59925225
Si       9.49710939       5.48090302       3.43643758
Si       7.54700603       5.48428648       3.43643758
Si       8.51912754       3.79375571       3.43643758
Si      10.75693251       7.38078312      11.60528572
Si       5.27175003       5.62538526      11.60528572
Si       9.53456042       1.75277683      11.60528572
Si      11.15199272       3.76161025      11.99885024
Si       8.20851558       7.77710387      11.99885024
Si       6.20273466       3.22023108      11.99885024
Si       9.65835356       9.10929622      10.48345521
Si       4.32410326       3.80973143      10.48345521
Si      11.58078614       1.83991756      10.48345521
Si       4.27469962       1.33946336       2.50628003
Si       5.22372145       3.03226678       2.50628003
Si       3.28319977       3.00774209       2.50628003
24
Lattice="8.4960137747617 -1.3792399441434129e-12 9.123552569261092e-15 4.248006887382049 7.357763759845469 -2.2192827045206274e-14 4.248006887381237 2.452587919948083 15.020827887081829" Properties=species:S:1:pos:R:3 unique_starting_index=24 config_type=initial n_minim_iter=8 stress="-0.002508213131558112 2.2465128829055713e-15 4.8004433182087467e-17 2.2465128829055713e-15 -0.00250821313155691 2.4782584224053037e-16 4.8004433182087467e-17 2.4782584224053037e-16 0.00031276836778293393" pbc="T T T"
Si       9.48101564       4.33851844      15.96931877
Si       8.49425170       6.04154118      15.96931877
Si       7.51277272       4.33546717      15.96931877
Si       9.45683740       4.02881607      10.70757364
Si       8.77455094       6.17545340      10.70757364
Si       7.25665171       4.51125732      10.70757364
Si      10.17541297       3.91856794       2.63890221
Si       8.51074084       6.85288216       2.63890221
Si       6.80188624       3.94407669       2.63890221
Si       9.47931079       5.45487551       3.47383244
Si       7.52831054       5.48188620       3.47383244
Si       8.48041872       3.77876508       3.47383244
Si      10.73886984       7.30011132      11.75245021
Si       5.30050993       5.65007843      11.75245021
Si       9.44866029       1.76533703      11.75245021
Si      11.07773234       3.72287462      12.16135723
Si       8.22905654       7.73216031      12.16135723
Si       6.18125118       3.26049186      12.16135723
Si       9.65147824       9.09754960      10.66111197
Si       4.28757852       3.80965054      10.66111197
Si      11.54898330       1.80832665      10.66111197
Si       4.24646343       1.33871676       2.54722621
Si       5.21341849       3.00818683       2.54722621
Si       3.28413747       3.01085944       2.54722621
24
Lattice="8.494002114803825 -1.4803971911889172e-12 9.21378151258435e-15 4.247001057403201 7.356021611218123 -2.1977550123903925e-14 4.2470010574023265 2.4520072037389338 15.27435798748803" Properties=species:S:1:pos:R:3 unique_starting_index=24 config_type=initial n_minim_iter=9 stress="-0.0014083162185077624 2.0083219312920748e-15 1.5675473832345173e-17 2.0083219312920748e-15 -0.0014083162185069937 -1.8906540887583667e-16 1.5675473832345173e-17 -1.8906540887583667e-16 0.0007233660273914725" pbc="T T T"
Si       9.46649993       4.31435844      16.27243865
Si       8.51840941       6.04105020      16.27243865
Si       7.49709574       4.35663384      16.27243865
Si       9.39846416       4.01726249      10.88627332
Si       8.80971994       6.13067748      10.88627332
Si       7.27382098       4.56410253      10.88627332
Si      10.16614276       3.90582436       2.68149182
Si       8.52238889       6.85122571       2.68149182
Si       6.79347343       3.95499243       2.68149182
Si       9.47830126       5.44682272       3.51938455
Si       7.53176591       5.48503831       3.51938455
Si       8.47193791       3.78018146       3.51938455
Si      10.75120133       7.22731751      11.91627144
Si       5.35336215       5.69715472      11.91627144
Si       9.37744159       1.78757026      11.91627144
Si      11.02646523       3.68361911      12.34910380
Si       8.28466304       7.70738945      12.34910380
Si       6.17087680       3.32103393      12.34910380
Si       9.67746466       9.11508043      10.87484821
Si       4.25537984       3.82339003      10.87484821
Si      11.54916057       1.77357203      10.87484821
Si       4.22658223       1.33867501       2.59197166
Si       5.22138359       2.99099008       2.59197166
Si       3.29303608       3.02635580       2.59197166
24
Lattice="8.49385767515874 -1.5865778917549402e-12 9.140177007759988e-15 4.24692883758075 7.355896522816114 -2.1335488584185076e-14 4.246928837579813 2.4519655076048967 15.527831720675467" Properties=species:S:1:pos:R:3 unique_starting_index=24 config_type=initial n_minim_iter=10 stress="-0.00032466291889419785 1.9726302990271785e-15 3.616145576590024e-17 1.9726302990271785e-15 -0.0003246629188931249 9.106164058770608e-17 3.616145576590024e-17 9.106164058770608e-17 0.00033604100630301847" pbc="T T T"
Si       9.45148134       4.30027174      16.57680701
Si       8.53782926       6.03508707      16.57680701
Si       7.49226115       4.37643350      16.57680701
Si       9.34352407       4.00148825      11.06289099
Si       8.85056199       6.09098508      11.06289099
Si       7.28748570       4.61931899      11.06289099
Si      10.15435849       3.90306273       2.72268310
Si       8.53038379       6.84240105       2.72268310
Si       6.79682948       3.96632854       2.72268310
Si       9.48198784       5.44493389       3.56527398
Si       7.53126952       5.48917540       3.56527398
Si       8.46831440       3.77768302       3.56527398
Si      10.76404349       7.15895302      12.07255199
Si       5.40585758       5.74245860      12.07255199
Si       9.31167068       1.81038069      12.07255199
Si      10.98096355       3.63892733      12.53622907
Si       8.34582922       7.69032973      12.53622907
Si       6.15477899       3.38253526      12.53622907
Si       9.70762090       9.13689463      11.09717424
Si       4.22112119       3.83859900      11.09717424
Si      11.55282966       1.73629869      11.09717424
Si       4.20980159       1.33122884       2.63792150
Si       5.23607804       2.98018071       2.63792150
Si       3.29490561       3.04448624       2.63792150
24
Lattice="8.487803187811284 -1.635686184283715e-12 9.49902848198965e-15 4.243901593907065 7.350653182966299 -2.0963187819033595e-14 4.243901593906099 2.450217727654943 15.655708668517292" Properties=species:S:1:pos:R:3 unique_starting_index=24 config_type=initial n_minim_iter=11 stress="-0.0007065156271577893 2.838373815930274e-15 -9.404983237191677e-16 2.838373815930274e-15 -0.0007065156271588549 -1.473773205622534e-16 -9.404983237191677e-16 -1.473773205622534e-16 -0.0006466902383876733" pbc="T T T"
Si       9.43832089       4.29927000      16.73039071
Si       8.53316805       6.02419066      16.73039071
Si       7.49191935       4.37784498      16.73039071
Si       9.31348630       3.98598008      11.14996132
Si       8.86690237       6.07272570      11.14996132
Si       7.28301962       4.64259986      11.14996132
Si      10.14646475       3.90043187       2.73528214
Si       8.52450006       6.83688030       2.73528214
Si       6.79244348       3.96399346       2.73528214
Si       9.46980128       5.44669485       3.59593676
Si       7.52372878       5.47774106       3.59593676
Si       8.46987823       3.77686973       3.59593676
Si      10.76147701       7.12666818      12.14636527
Si       5.42299134       5.75637838      12.14636527
Si       9.27893995       1.81825908      12.14636527
Si      10.95623236       3.60992645      12.63205292
Si       8.37120134       7.68341233      12.63205292
Si       6.13597459       3.40796686      12.63205292
Si       9.71643723       9.14266181      11.21554349
Si       4.19960953       3.84335058      11.21554349
Si      11.54736153       1.71529325      11.21554349
Si       4.20364111       1.33304240       2.66117981
Si       5.23153321       2.97393879       2.66117981
Si       3.29652920       3.04367126       2.66117981
24
Lattice="8.493031416596336 -1.6675276322572932e-12 9.314588823496573e-15 4.2465157082996186 7.355180961910934 -2.0573993776629868e-14 4.246515708298635 2.451726987303145 15.698049729587233" Properties=species:S:1:pos:R:3 unique_starting_index=24 config_type=initial n_minim_iter=12 stress="-0.0003809074882602226 2.900371692023652e-15 -1.4903775842688482e-15 2.900371692023652e-15 -0.0003809074882613584 -4.132389989806515e-17 -1.4903775842688482e-15 -4.132389989806515e-17 -0.0005818594928422969" pbc="T T T"
Si       9.44813491       4.30842526      16.78375789
Si       8.53078881       6.02811222      16.78375789
Si       7.50016927       4.37382371      16.78375789
Si       9.30880447       3.97416770      11.17505023
Si       8.88992956       6.07457730      11.17505023
Si       7.28035895       4.66161619      11.17505023
Si      10.15155860       3.91565368       2.73718965
Si       8.51922713       6.83368080       2.73718965
Si       6.80830725       3.96102672       2.73718965
Si       9.46949812       5.45319288       3.60541000
Si       7.52870936       5.47422950       3.60541000
Si       8.48088549       3.78293882       3.60541000
Si      10.77126868       7.12062215      12.15656682
Si       5.43378798       5.76788123      12.15656682
Si       9.27403633       1.82185781      12.15656682
Si      10.95663238       3.58983034      12.66343638
Si       8.39886153       7.69380681      12.66343638
Si       6.12359907       3.42672404      12.66343638
Si       9.73370913       9.15782539      11.27011879
Si       4.18829799       3.85072668      11.27011879
Si      11.55708586       1.70180912      11.27011879
Si       4.21034985       1.32726187       2.67225159
Si       5.23841315       2.98263900       2.67225159
Si       3.29078285       3.04527937       2.67225159
24
Lattice="8.489812391754116 -1.6845440373499202e-12 9.152318737136905e-15 4.244906195878522 7.352393204622146 -2.0388100779199603e-14 4.244906195877529 2.450797734873542 15.73792787164305" Properties=species:S:1:pos:R:3 unique_starting_index=24 config_type=initial n_minim_iter=13 stress="0.00039298110624334576 2.0641048744430225e-15 -1.3738943786895103e-15 2.0641048744430225e-15 0.0003929811062405954 -4.643218833031734e-16 -1.3738943786895103e-15 -4.643218833031734e-16 0.0003077873459947948" pbc="T T T"
Si       9.45515255       4.32292008      16.82957589
Si       8.50828905       6.02694226      16.82957589
Si       7.50599430       4.35492333      16.82957589
Si       9.30837766       3.95435541      11.19514686
Si       8.90086287       6.08411382      11.19514686
Si       7.26019538       4.66631645      11.19514686
Si      10.15313515       3.93532646       2.73844271
Si       8.49496368       6.82520974       2.73844271
Si       6.82133708       3.94424948       2.73844271
Si       9.46558862       5.46272486       3.61599473
Si       7.51597113       5.46607778       3.61599473
Si       8.48787616       3.77598304       3.61599473
Si      10.77168544       7.12563618      12.16369947
Si       5.42279927       5.76573514      12.16369947
Si       9.27495120       1.81341435      12.16369947
Si      10.95472448       3.56564220      12.70052753
Si       8.41432497       7.70424860      12.70052753
Si       6.10038645       3.43489489      12.70052753
Si       9.73738955       9.16209334      11.32267928
Si       4.17632358       3.85178005      11.32267928
Si      11.55572278       1.69091229      11.32267928
Si       4.22409449       1.32415212       2.68332060
Si       5.23101493       2.99609707       2.68332060
Si       3.27960790       3.03214328       2.68332060
24
Lattice="8.491919517868933 -1.6965744587025385e-12 9.442834192942342e-15 4.245959758935941 7.354218029366549 -2.071452056614172e-14 4.2459597589349425 2.4514060097883386 15.735400742429265" Properties=species:S:1:pos:R:3 unique_starting_index=24 config_type=initial n_minim_iter=14 stress="0.0004980927791362322 1.540780372315593e-15 -1.5025659009168725e-15 1.540780372315593e-15 0.0004980927791336762 -1.5234948907959944e-16 -1.5025659009168725e-15 -1.5234948907959944e-16 0.00027290362242374635" pbc="T T T"
Si       9.46791538       4.33437683      16.82821430
Si       8.49620005       6.03226683      16.82821430
Si       7.51164185       4.34179167      16.82821430
Si       9.32052359       3.94325100      11.18745704
Si       8.90862085       6.10018471      11.18745704
Si       7.24661284       4.66499962      11.18745704
Si      10.16429656       3.94804140       2.73806566
Si       8.48258576       6.82851833       2.73806566
Si       6.82887497       3.93187560       2.73806566
Si       9.46266105       5.46888814       3.61360671
Si       7.51631161       5.46046078       3.61360671
Si       8.49678463       3.77908640       3.61360671
Si      10.78298733       7.13804348      12.14838833
Si       5.41061754       5.76931922      12.14838833
Si       9.28215242       1.80107263      12.14838833
Si      10.95570171       3.55300134      12.70706517
Si       8.42899792       7.71141533      12.70706517
Si       6.09105766       3.44401866      12.70706517
Si       9.74171355       9.16838161      11.33092505
Si       4.17293003       3.85238061      11.33092505
Si      11.56111371       1.68767311      11.33092505
Si       4.23844657       1.32584453       2.68390274
Si       5.22448034       3.00768014       2.68390274
Si       3.27495109       3.02069263       2.68390274
24
Lattice="8.493318777267028 -1.7342185980290676e-12 9.483621583687629e-15 4.246659388635022 7.355429823551764 -2.006831714322899e-14 4.246659388634002 2.4518099411833996 15.773776090052454" Properties=species:S:1:pos:R:3 unique_starting_index=24 config_type=initial n_minim_iter=15 stress="0.00011255960204842204 1.1931225041434145e-15 -1.6173626164523878e-15 1.1931225041434145e-15 0.00011255960204590195 -7.520389721583846e-18 -1.6173626164523878e-15 -7.520389721583846e-18 1.5686142527536115e-05" pbc="T T T"
Si       9.47634073       4.34570478      16.87487189
Si       8.48497561       6.03389942      16.87487189
Si       7.51863872       4.33125472      16.87487189
Si       9.33025290       3.92929825      11.20646144
Si       8.91863815       6.11558691      11.20646144
Si       7.23106401       4.66597376      11.20646144
Si      10.17705968       3.95707983       2.74917100
Si       8.47117521       6.83505231       2.74917100
Si       6.83172017       3.91872678       2.74917100
Si       9.46156616       5.47597173       3.61386801
Si       7.51352300       5.45597079       3.61386801
Si       8.50486590       3.77891640       3.61386801
Si      10.80485293       7.14377699      12.15817688
Si       5.39751789       5.78538863      12.15817688
Si       9.27758424       1.78169330      12.15817688
Si      10.94247324       3.53189840      12.75083931
Si       8.45668635       7.71051060      12.75083931
Si       6.08079547       3.46844991      12.75083931
Si       9.74783481       9.17861833      11.37109585
Si       4.16380265       3.85256342      11.37109585
Si      11.56831759       1.67967717      11.37109585
Si       4.25263216       1.32968281       2.69175184
Si       5.21546276       3.01804607       2.69175184
Si       3.27188198       3.00770021       2.69175184
24
Lattice="8.496502977617036 -1.7852941498122243e-12 1.0400982843056719e-14 4.248251488810069 7.358187421945588 -2.037854654392566e-14 4.2482514888090215 2.4527291406479876 15.84700050291072" Properties=species:S:1:pos:R:3 unique_starting_index=24 config_type=initial n_minim_iter=16 stress="-0.0002152027704132583 4.338977990258808e-16 -9.159535472075911e-16 4.338977990258808e-16 -0.0002152027704150226 2.6852469031915465e-16 -9.159535472075911e-16 2.6852469031915465e-16 -0.00011246733953282452" pbc="T T T"
Si       9.48243659       4.35312717      16.96283857
Si       8.48186810       6.03546739      16.96283857
Si       7.52520297       4.32777955      16.96283857
Si       9.33400520       3.92096307      11.24779468
Si       8.93034888       6.12300409      11.24779468
Si       7.22515358       4.67240695      11.24779468
Si      10.18883187       3.96045013       2.76771091
Si       8.46873875       6.84356218       2.76771091
Si       6.83193703       3.91236181       2.76771091
Si       9.46249389       5.48090885       3.61914491
Si       7.51515186       5.45430566       3.61914491
Si       8.51186191       3.78115960       3.61914491
Si      10.83580508       7.14434499      12.19313594
Si       5.38791832       5.81190998      12.19313594
Si       9.26578427       1.76011915      12.19313594
Si      10.92385172       3.50869304      12.82500575
Si       8.49246194       7.70598658      12.82500575
Si       6.07319400       3.50169450      12.82500575
Si       9.75828466       9.19479031      11.43694326
Si       4.15094079       3.85352726      11.43694326
Si      11.58028221       1.66805654      11.43694326
Si       4.26304973       1.33329038       2.70447221
Si       5.21031392       3.02526418       2.70447221
Si       3.27138954       2.99963213       2.70447221
24
Lattice="8.499797201709288 -1.825434964907883e-12 1.1268486294954208e-14 4.2498986008562305 7.3610403036952174 -2.0021601812037978e-14 4.2498986008551585 2.4536801012311837 15.88457620973881" Properties=species:S:1:pos:R:3 unique_starting_index=24 config_type=initial n_minim_iter=17 stress="-0.00021390144535119522 2.5491915940717094e-16 -5.418987038931579e-16 2.5491915940717094e-16 -0.00021390144535283958 2.2457629495757725e-16 -5.418987038931579e-16 2.2457629495757725e-16 7.052011099872614e-05" pbc="T T T"
Si       9.48464444       4.35606014      17.00859462
Si       8.48481260       6.03591296      17.00859462
Si       7.52993330       4.33010678      17.00859462
Si       9.33452124       3.92026526      11.26586258
Si       8.93728363       6.12379990      11.26586258
Si       7.22758546       4.67801472      11.26586258
Si      10.19372728       3.95880954       2.77722191
Si       8.47430029       6.84862201       2.77722191
Si       6.83136277       3.91464832       2.77722191
Si       9.46616192       5.48252718       3.62025474
Si       7.51850478       5.45667312       3.62025474
Si       8.51472363       3.78287958       3.62025474
Si      10.86113954       7.14504382      12.20808584
Si       5.38123433       5.83350085      12.20808584
Si       9.25701646       1.74353521      12.20808584
Si      10.91032627       3.49370994      12.86735751
Si       8.51878886       7.70176475      12.86735751
Si       6.07027520       3.52660519      12.86735751
Si       9.76746924       9.20992777      11.47260963
Si       4.13982752       3.85391260      11.47260963
Si      11.59209358       1.65823950      11.47260963
Si       4.26640975       1.33464465       2.71194885
Si       5.21075531       3.02749690       2.71194885
Si       3.27252948       2.99889802       2.71194885
24
Lattice="8.506644923343314 -1.8905306679894646e-12 1.1563807130498051e-14 4.253322461673299 7.366970604588295 -1.919344606514507e-14 4.253322461672193 2.455656868195523 15.841368850511001" Properties=species:S:1:pos:R:3 unique_starting_index=24 config_type=initial n_minim_iter=18 stress="0.0005484207010126557 -4.439773229079725e-16 -7.911351578291497e-16 -4.439773229079725e-16 0.0005484207010125572 7.500085430937828e-16 -7.911351578291497e-16 7.500085430937828e-16 0.0005561300411616188" pbc="T T T"
Si       9.48765726       4.35781749      16.96335982
Si       8.49547972       6.03764347      16.96335982
Si       7.53679652       4.33847952      16.96335982
Si       9.33756296       3.92595479      11.22042381
Si       8.94453094       6.12358934      11.22042381
Si       7.23783960       4.68439635      11.22042381
Si      10.19514152       3.95043191       2.76797167
Si       8.49454385       6.85403560       2.76797167
Si       6.83024813       3.92947297       2.76797167
Si       9.47610839       5.48096254       3.60499454
Si       7.52858200       5.46606932       3.60499454
Si       8.51524310       3.78690861       3.60499454
Si      10.90318127       7.15437147      12.15538462
Si       5.36583092       5.86524622      12.15538462
Si       9.25092131       1.71432278      12.15538462
Si      10.89274124       3.47375818      12.85481948
Si       8.55855555       7.69651154      12.85481948
Si       6.06863671       3.56367076      12.85481948
Si       9.78382212       9.24032980      11.45404240
Si       4.11901759       3.85287360      11.45404240
Si      11.61709379       1.64073708      11.45404240
Si       4.26538722       1.33499055       2.70983835
Si       5.21781473       3.02643842       2.70983835
Si       3.27676416       3.00554090       2.70983835
24
Lattice="8.499604120280733 -1.899653935142906e-12 1.1911145872100259e-14 4.2498020601420174 7.360873090273051 -1.929654867165739e-14 4.249802060140906 2.4536243634237693 15.492778691606873" Properties=species:S:1:pos:R:3 unique_starting_index=24 config_type=initial n_minim_iter=19 stress="0.0012417087349865386 -8.352174207477348e-16 -4.3206208369814125e-16 -8.352174207477348e-16 0.0012417087349869344 7.613613273418244e-16 -4.3206208369814125e-16 7.613613273418244e-16 0.00017774694069721088" pbc="T T T"
Si       9.48086301       4.34959900      16.56548353
Si       8.49191266       6.03586872      16.56548353
Si       7.52603542       4.33627773      16.56548353
Si       9.34221898       3.92614777      10.96463685
Si       8.92795420       6.12752508      10.96463685
Si       7.22863791       4.66807260      10.96463685
Si      10.16886754       3.93511151       2.68565231
Si       8.50686709       6.83894187       2.68565231
Si       6.82307646       3.94769208       2.68565231
Si       9.47542743       5.46566707       3.54678484
Si       7.52808715       5.47312733       3.54678484
Si       8.49529651       3.78295105       3.54678484
Si      10.89796024       7.18215978      11.87922614
Si       5.33029445       5.84683052      11.87922614
Si       9.27055640       1.69275514      11.87922614
Si      10.88457763       3.46419702      12.59514721
Si       8.55683596       7.69422223      12.59514721
Si       6.05739751       3.56332620      12.59514721
Si       9.77905276       9.25294486      11.20967294
Si       4.09639570       3.84243569      11.20967294
Si      11.62336263       1.62636490      11.20967294
Si       4.25117828       1.33008192       2.66177998
Si       5.22212940       3.01658743       2.66177998
Si       3.27609723       3.01420301       2.66177998
24
Lattice="8.493691466685842 -1.9542899792701322e-12 1.2517859777366478e-14 4.24684573334462 7.355752582056071 -1.8869026436242016e-14 4.246845733343477 2.4519175273514247 15.464230773393684" Properties=species:S:1:pos:R:3 unique_starting_index=24 config_type=initial n_minim_iter=20 stress="-0.0008723424973571856 1.3467467164153173e-16 -8.095346796481344e-16 1.3467467164153173e-16 -0.0008723424973572628 9.634065247803772e-16 -8.095346796481344e-16 9.634065247803772e-16 0.00013384495277721318" pbc="T T T"
Si       9.47799152       4.35241579      16.53341380
Si       8.47908369       6.03197354      16.53341380
Si       7.52399792       4.32711510      16.53341380
Si       9.34223703       3.90769640      10.93161732
Si       8.93209922       6.13676640      10.93161732
Si       7.20673688       4.66704163      10.93161732
Si      10.16755841       3.93505392       2.68172722
Si       8.49574622       6.83783692       2.68172722
Si       6.81776850       3.93861359       2.68172722
Si       9.46778112       5.46446076       3.53801527
Si       7.52112970       5.46710859       3.53801527
Si       8.49216232       3.77993509       3.53801527
Si      10.91044542       7.19097520      11.82608617
Si       5.30459218       5.85323531      11.82608617
Si       9.26603553       1.66729393      11.82608617
Si      10.85444709       3.42926681      12.60052318
Si       8.59032637       7.68559352      12.60052318
Si       6.03629967       3.59664410      12.60052318
Si       9.78209139       9.26389890      11.20610701
Si       4.07356460       3.83959020      11.20610701
Si      11.62541713       1.60801533      11.20610701
Si       4.25937600       1.33021449       2.65802263
Si       5.21200308       3.02362057       2.65802263
Si       3.26915685       3.00191678       2.65802263
24
Lattice="8.493026536957041 -1.987745973377535e-12 1.2535965596247537e-14 4.246513268480248 7.355176736019176 -1.8971130318638516e-14 4.246513268479087 2.451725578672448 15.186028694174771" Properties=species:S:1:pos:R:3 unique_starting_index=24 config_type=initial n_minim_iter=21 stress="-0.00025166936473482214 8.269591425041165e-16 -1.6690521873737952e-15 8.269591425041165e-16 -0.0002516693647353474 1.0310592727332521e-15 -1.6690521873737952e-15 1.0310592727332521e-15 -0.0008018176843975556" pbc="T T T"
Si       9.47377674       4.34323330      16.20819164
Si       8.48781349       6.03291468      16.20819164
Si       7.51748811       4.33420477      16.20819164
Si       9.34692636       3.90831563      10.72646512
Si       8.92788843       6.14051786      10.72646512
Si       7.20426355       4.66151925      10.72646512
Si      10.15609093       3.92183500       2.63030059
Si       8.51159803       6.83451525       2.63030059
Si       6.81138938       3.95400249       2.63030059
Si       9.47260066       5.45578163       3.49051989
Si       7.52490641       5.47562200       3.49051989
Si       8.48157127       3.77894911       3.49051989
Si      10.90380958       7.22623135      11.58959484
Si       5.27604751       5.82986042      11.58959484
Si       9.29922125       1.65426097      11.58959484
Si      10.83784925       3.40752857      12.41981340
Si       8.61612130       7.68208849      12.41981340
Si       6.02510779       3.62073568      12.41981340
Si       9.78717831       9.28276686      11.00672593
Si       4.05335115       3.83456162      11.00672593
Si      11.63854888       1.59302426      11.00672593
Si       4.25222699       1.33051537       2.60905907
Si       5.21465208       3.01727892       2.60905907
Si       3.27265946       3.00738172       2.60905907
