22
Lattice="5.114915686705189 -2.5443104049937793 -0.08627371053377583 -4.075011035613311 10.24205875815585 -4.015432092040218 1.0536959515173687 -8.807231229764328 14.908465928009191" Properties=species:S:1:pos:R:3 unique_starting_index=51 config_type=initial n_minim_iter=1 energy=-3582.4568313588697 free_energy=-3582.4568313588697 pbc="T T T"
Si       0.56840390       5.49238656       0.86729267
Si       0.17202417      -0.68028147       7.93553606
Si      -0.62514311       7.09387265      -4.84463400
Si      -0.89271792       4.34024406       2.35297341
Si       0.35706299      -0.00325604       5.33427698
Si       3.07050596      -2.16026588       5.76681935
Si      -0.48865533       1.14917722       0.27923564
Si       0.23012254       2.66133207      -1.38387437
Si       2.07741161      -3.90631187       7.16918490
Si       3.44834046      -4.18421114      11.07208019
Si      -1.38769054       1.00955698       8.67209926
Si       3.06003609      -2.08675569       3.30060592
Si       0.22853668       0.64055325       2.74092379
Si       4.30342424      -7.57204058      13.32494683
Si       2.82276945      -6.36889639      11.78228707
Si       0.95579480       2.92269423       2.64994471
Si       1.54343418      -1.13633378       1.78038923
Si       2.28522468      -0.23286027       6.87607924
Si       2.19483009      -3.12430376       9.40247418
Si       0.53311507      -4.23346594       4.49952046
Si       3.03855415       0.35472040       0.68922391
Si       2.68825215      -4.38296970       3.56282428
22
Lattice="5.118411437121976 -2.5424451621815494 -0.08668439192807977 -4.08007693845397 10.229521267409948 -4.021461344191601 1.054345236540266 -8.799066187041378 14.924849032923905" Properties=species:S:1:pos:R:3 unique_starting_index=51 config_type=initial n_minim_iter=2 stress="0.0002358753292929633 -0.0003083182755590749 -0.0001934101399165777 -0.0003083182755590749 -0.0008025366721183783 -0.0001754827610835954 -0.0001934101399165777 -0.0001754827610835954 0.0003416650765280858" pbc="T T T"
Si       0.56587310       5.48455029       0.86598921
Si       0.17085120      -0.68241210       7.94406916
Si      -0.62774210       7.08470999      -4.85072236
Si      -0.89488296       4.33320812       2.35402480
Si       0.35589644      -0.00559360       5.33952606
Si       3.07146513      -2.16073713       5.77234809
Si      -0.48838677       1.14745840       0.27951147
Si       0.22904496       2.65844927      -1.38592085
Si       2.07903654      -3.90320999       7.17657361
Si       3.44897933      -4.18279726      11.08322473
Si      -1.39091385       1.00626575       8.67975031
Si       3.06166236      -2.08584961       3.30367145
Si       0.22775956       0.63841227       2.74327532
Si       4.30484971      -7.56713826      13.33874420
Si       2.82392599      -6.36471431      11.79497212
Si       0.95414238       2.91702283       2.65040597
Si       1.54440284      -1.13556263       1.78124693
Si       2.28489881      -0.23517512       6.88195339
Si       2.19593057      -3.12352547       9.41147260
Si       0.53366064      -4.22834758       4.50479804
Si       3.03987969       0.35298522       0.68899158
Si       2.69081165      -4.37777535       3.56679425
22
Lattice="5.1164845370445 -2.5401355381814272 -0.0845577193534319 -4.074854899099924 10.231086337066355 -4.024239322491948 1.0556520134284502 -8.800369546579773 14.932574893439366" Properties=species:S:1:pos:R:3 unique_starting_index=51 config_type=initial n_minim_iter=3 stress="0.0005589016712014091 0.0001971434372196096 9.879584908542761e-05 0.0001971434372196096 1.2707340517901916e-05 6.0914540948853725e-05 9.879584908542761e-05 6.0914540948853725e-05 0.0008549457665513045" pbc="T T T"
Si       0.56811333       5.49065776       0.86662443
Si       0.17520415      -0.68364004       7.95202964
Si      -0.62744864       7.08585346      -4.85114571
Si      -0.88897566       4.33459480       2.35559922
Si       0.35805016      -0.00609020       5.34411384
Si       3.07252412      -2.16124719       5.77726251
Si      -0.48381333       1.14752358       0.28067991
Si       0.22868248       2.66238647      -1.38597148
Si       2.08209529      -3.90171390       7.18107087
Si       3.45081573      -4.18091977      11.09145365
Si      -1.38675833       1.00845642       8.68263358
Si       3.06203717      -2.08386438       3.30675019
Si       0.22926498       0.63825259       2.74533314
Si       4.30389430      -7.56811817      13.34739906
Si       2.82491892      -6.36616327      11.80369316
Si       0.95626996       2.91944721       2.64961299
Si       1.54520538      -1.13400892       1.78014258
Si       2.28776551      -0.23148402       6.88664015
Si       2.20140784      -3.12259715       9.41669529
Si       0.53187185      -4.22820996       4.50666071
Si       3.04092608       0.35603198       0.69056162
Si       2.69048104      -4.37502753       3.56930887
22
Lattice="5.113055038601515 -2.540366134125391 -0.08427256165446276 -4.072970308141471 10.23067464883825 -4.021706093319402 1.055764253871814 -8.800786494214401 14.920594622772331" Properties=species:S:1:pos:R:3 unique_starting_index=51 config_type=initial n_minim_iter=4 stress="-0.0005535654361579267 7.522037911086128e-05 0.00012472536455300262 7.522037911086128e-05 -0.0007341207671817417 0.00015891456365925918 0.00012472536455300262 0.00015891456365925918 -0.00038857216303870965" pbc="T T T"
Si       0.56617709       5.49109054       0.86491931
Si       0.17554672      -0.68529978       7.94686681
Si      -0.62857577       7.08502486      -4.84689364
Si      -0.88810142       4.33377767       2.35315590
Si       0.35756582      -0.00725537       5.34015117
Si       3.07038551      -2.16288326       5.77264568
Si      -0.48196752       1.14727314       0.28078215
Si       0.22760110       2.66337192      -1.38487383
Si       2.08188082      -3.90181116       7.17528300
Si       3.44836144      -4.18189306      11.08271489
Si      -1.38632647       1.00828693       8.67438581
Si       3.06011029      -2.08398151       3.30406110
Si       0.22889452       0.63743960       2.74307984
Si       4.30050110      -7.56982377      13.33675704
Si       2.82330368      -6.36769650      11.79486837
Si       0.95488198       2.91871265       2.64560616
Si       1.54459496      -1.13386169       1.77750359
Si       2.28590222      -0.23184073       6.88059922
Si       2.20141147      -3.12350276       9.40857086
Si       0.53141994      -4.22763312       4.50298165
Si       3.03896881       0.35593218       0.68974796
Si       2.68934752      -4.37410074       3.56651154
22
Lattice="5.115358870643622 -2.5448792162461906 -0.08486815645366853 -4.077077171561877 10.243413627923802 -4.0240052222233125 1.0546427047200109 -8.816113953068474 14.920192323775874" Properties=species:S:1:pos:R:3 unique_starting_index=51 config_type=initial n_minim_iter=5 stress="7.82752246756039e-06 -0.0002713296750211994 -0.00020459719897382835 -0.0002713296750211994 0.00010976008373916672 3.4884656455426863e-06 -0.00020459719897382835 3.4884656455426863e-06 -0.00028397732082527963" pbc="T T T"
Si       0.56252602       5.49628698       0.86131687
Si       0.17350825      -0.69080296       7.94649636
Si      -0.63076850       7.09328829      -4.84786330
Si      -0.89054519       4.33672395       2.35066023
Si       0.35558440      -0.01050899       5.33912542
Si       3.06980887      -2.16986279       5.77103163
Si      -0.48107660       1.14812879       0.28070964
Si       0.22631118       2.66745325      -1.38564738
Si       2.08228090      -3.90947574       7.17440183
Si       3.44657756      -4.19263820      11.08079574
Si      -1.39067684       1.00617637       8.67110833
Si       3.06054733      -2.08835030       3.30292932
Si       0.22760544       0.63611341       2.74211470
Si       4.29905148      -7.58555887      13.33528894
Si       2.82238812      -6.38105701      11.79424820
Si       0.95269137       2.91945014       2.64166028
Si       1.54525568      -1.13608837       1.77579508
Si       2.28372830      -0.23599334       6.87772315
Si       2.20110077      -3.13186676       9.40630965
Si       0.53136102      -4.23309595       4.50324338
Si       3.03958233       0.35490967       0.68810273
Si       2.69084285      -4.37999888       3.56637154
22
Lattice="5.112212897552691 -2.541606149940864 -0.07962761270172168 -4.071575467055358 10.245024565489441 -4.038583654498878 1.0569682892970467 -8.830127335480793 14.938304986668934" Properties=species:S:1:pos:R:3 unique_starting_index=51 config_type=initial n_minim_iter=6 stress="-0.00014606416540158872 0.00033123378655240985 0.00010405064997257299 0.00033123378655240985 0.000239452996239302 -0.00051626471309018 0.00010405064997257299 -0.00051626471309018 0.00019113116410971666" pbc="T T T"
Si       0.56437634       5.49755985       0.85564671
Si       0.17855524      -0.70050280       7.95570977
Si      -0.62901203       7.09629389      -4.85604433
Si      -0.88517234       4.33405833       2.34731143
Si       0.35829473      -0.01620184       5.34396281
Si       3.07033812      -2.17505956       5.77856859
Si      -0.47664869       1.14709018       0.28012804
Si       0.22565389       2.67144963      -1.38858555
Si       2.08437232      -3.91553455       7.18364875
Si       3.44779947      -4.20217616      11.09464935
Si      -1.38597649       0.99767796       8.67250104
Si       3.05998548      -2.08829288       3.30820402
Si       0.22957555       0.63269787       2.74384975
Si       4.29826764      -7.59702905      13.35399717
Si       2.82372018      -6.39218049      11.81060706
Si       0.95618431       2.91713717       2.63793050
Si       1.54623325      -1.13610074       1.77641344
Si       2.28566861      -0.24091752       6.88268550
Si       2.20567168      -3.13947431       9.41598712
Si       0.53009427      -4.23527107       4.50958485
Si       3.04039173       0.35696196       0.68937637
Si       2.68899779      -4.38034601       3.57329855
22
Lattice="5.115098506678269 -2.5414791971063755 -0.07959110427402463 -4.076816335188145 10.238429656085344 -4.031882589454061 1.066350453516284 -8.812177675040056 14.936598033075677" Properties=species:S:1:pos:R:3 unique_starting_index=51 config_type=initial n_minim_iter=7 stress="0.0004139325246129158 0.00018135366781075576 0.00042243941165224667 0.00018135366781075576 0.0003702899660410782 0.0002518941397874231 0.00042243941165224667 0.0002518941397874231 0.0003697137938266475" pbc="T T T"
Si       0.56207181       5.49845623       0.86058534
Si       0.18458762      -0.69466186       7.96356657
Si      -0.63225327       7.08742801      -4.84865264
Si      -0.88357885       4.33564643       2.35239490
Si       0.36131206      -0.01120850       5.34836102
Si       3.07468662      -2.17031129       5.78091138
Si      -0.47260739       1.14651549       0.28175419
Si       0.22274153       2.67202571      -1.38574609
Si       2.09083056      -3.90794096       7.18398124
Si       3.45412157      -4.19119029      11.09880110
Si      -1.38371836       1.00720929       8.67402764
Si       3.06314085      -2.08250263       3.30847121
Si       0.23142890       0.63437274       2.74682218
Si       4.30578679      -7.58228700      13.35611572
Si       2.83184498      -6.37961891      11.81274186
Si       0.95896644       2.91822187       2.63901651
Si       1.54985426      -1.13308682       1.77401325
Si       2.28887421      -0.23379556       6.88595287
Si       2.21442872      -3.12856812       9.41832404
Si       0.53218012      -4.22671566       4.50649356
Si       3.04386951       0.35822278       0.69104521
Si       2.69197392      -4.37396432       3.57026210
22
Lattice="5.11147674052462 -2.5393741181416947 -0.08682504690187896 -4.065701388268533 10.234853818072722 -4.025118381172781 1.0437138879900247 -8.806559001586063 14.9380280317347" Properties=species:S:1:pos:R:3 unique_starting_index=51 config_type=initial n_minim_iter=8 stress="7.715331070564323e-05 0.0005702887269771557 -0.0004958319500632808 0.0005702887269771557 0.00021210942087176315 0.0003506789789875613 -0.0004958319500632808 0.0003506789789875613 0.00038520073110062013" pbc="T T T"
Si       0.56073456       5.49855667       0.86034532
Si       0.17569511      -0.69399877       7.96995175
Si      -0.62113436       7.08348027      -4.84477971
Si      -0.88393064       4.33598116       2.35559278
Si       0.35451833      -0.00901126       5.35093293
Si       3.06440237      -2.16736718       5.77841543
Si      -0.46946078       1.14563431       0.28273152
Si       0.22377615       2.67320376      -1.38510960
Si       2.07897321      -3.90646419       7.18303714
Si       3.43508210      -4.18779004      11.09836377
Si      -1.39464208       1.00886377       8.67632212
Si       3.05586908      -2.07772692       3.30428776
Si       0.22887422       0.63464884       2.74886088
Si       4.28202009      -7.57545526      13.35528136
Si       2.81268390      -6.37490223      11.81278403
Si       0.95850925       2.91808280       2.63712131
Si       1.54807823      -1.13115492       1.77064198
Si       2.27695564      -0.23161082       6.88455230
Si       2.20095831      -3.12409092       9.41875299
Si       0.52415958      -4.22199348       4.50473905
Si       3.04346600       0.36016263       0.68708383
Si       2.68259007      -4.37085542       3.56476381
22
Lattice="5.113074646920749 -2.549056470220474 -0.07910232780768417 -4.085513155793469 10.249198941435075 -4.038392505165081 1.0739386078165747 -8.825465349613435 14.945077641360538" Properties=species:S:1:pos:R:3 unique_starting_index=51 config_type=initial n_minim_iter=9 stress="-0.0004647426664444894 -0.0005187854096710948 0.00014582602304300164 -0.0005187854096710948 -7.211112732665413e-05 -0.00011134807127169848 0.00014582602304300164 -0.00011134807127169848 2.1404491153188924e-05" pbc="T T T"
Si       0.54806179       5.49783855       0.85266517
Si       0.18794101      -0.70514256       7.97701971
Si      -0.63278927       7.08828262      -4.84511015
Si      -0.88797068       4.33749276       2.35000122
Si       0.35995771      -0.01296748       5.35189681
Si       3.07136281      -2.17793208       5.78227610
Si      -0.46630622       1.14505677       0.28037729
Si       0.21483197       2.67752790      -1.38621279
Si       2.09062567      -3.92252512       7.18870951
Si       3.44935741      -4.20905665      11.10620464
Si      -1.38870463       1.00164326       8.66638169
Si       3.05998468      -2.08163309       3.30717679
Si       0.23264353       0.63092633       2.75084855
Si       4.30341998      -7.59562760      13.36940298
Si       2.83297061      -6.39334561      11.82208214
Si       0.96130613       2.91228447       2.63053610
Si       1.55435375      -1.13430470       1.77005173
Si       2.27911462      -0.24443354       6.88415059
Si       2.21517430      -3.13662326       9.42418720
Si       0.53550544      -4.22263372       4.50521906
Si       3.04637482       0.35519017       0.68898312
Si       2.68748796      -4.37947074       3.56620196
22
Lattice="5.120020908914342 -2.542796605723787 -0.07931247980850994 -4.082856219153403 10.23996682511739 -4.033434799020424 1.065956129080077 -8.820830497871809 14.925647187784048" Properties=species:S:1:pos:R:3 unique_starting_index=51 config_type=initial n_minim_iter=10 stress="0.0005428889621609497 9.636524819018202e-05 -3.689249733003684e-05 9.636524819018202e-05 -0.00032891544177659403 -0.00016418639769641256 -3.689249733003684e-05 -0.00016418639769641256 -0.0006894693247138713" pbc="T T T"
Si       0.55370363       5.49600788       0.85054998
Si       0.18684095      -0.70548099       7.96735725
Si      -0.62702471       7.08410125      -4.83786401
Si      -0.88505832       4.33343927       2.34678339
Si       0.35945390      -0.01306486       5.34413561
Si       3.07414681      -2.17427647       5.77425608
Si      -0.46586837       1.14403263       0.27998245
Si       0.21764352       2.67647425      -1.38462567
Si       2.09029522      -3.91888379       7.17978434
Si       3.45098877      -4.20415480      11.09091514
Si      -1.39078535       0.99858246       8.65394486
Si       3.06344787      -2.07787154       3.30281050
Si       0.23390635       0.63046146       2.74764621
Si       4.30219932      -7.58842006      13.35178548
Si       2.82999328      -6.38859292      11.80656610
Si       0.96510451       2.91096082       2.62611421
Si       1.55580822      -1.13213802       1.76729682
Si       2.28223557      -0.24273964       6.87462047
Si       2.21544441      -3.13434183       9.41157737
Si       0.53191459      -4.21975875       4.49901878
Si       3.05299964       0.35749341       0.68779753
Si       2.68773079      -4.37370706       3.56077333
22
Lattice="5.114601932697893 -2.541852025613404 -0.08245318444473254 -4.074976758555437 10.23827506368096 -4.030664270484938 1.0581970350903336 -8.812918491194244 14.937637680875476" Properties=species:S:1:pos:R:3 unique_starting_index=51 config_type=initial n_minim_iter=11 stress="0.00016128493958987534 0.0003260113418611921 -0.00019898316315873697 0.0003260113418611921 1.5120030699452401e-05 6.122558491482604e-05 -0.00019898316315873697 6.122558491482604e-05 6.782789528168065e-05" pbc="T T T"
Si       0.55371407       5.49980900       0.85420816
Si       0.18434533      -0.70084899       7.97774066
Si      -0.62431143       7.08237423      -4.83664848
Si      -0.88207198       4.33419004       2.35304028
Si       0.35625689      -0.00980205       5.34933253
Si       3.06891737      -2.17045300       5.77881278
Si      -0.46509258       1.14448742       0.28135405
Si       0.21806908       2.67634651      -1.38479601
Si       2.08590305      -3.91397483       7.18618004
Si       3.44490203      -4.19623486      11.09962402
Si      -1.39069898       1.00310668       8.66422833
Si       3.05988501      -2.07575893       3.30502529
Si       0.23372852       0.63224075       2.75227739
Si       4.29151780      -7.58070085      13.36139155
Si       2.82052105      -6.38277508      11.81577819
Si       0.96304229       2.91312907       2.63020998
Si       1.55317238      -1.13034540       1.76775859
Si       2.27819688      -0.23724091       6.88225841
Si       2.21044848      -3.12988226       9.42016699
Si       0.52894708      -4.21736643       4.50078048
Si       3.05123838       0.35806699       0.68841632
Si       2.68323614      -4.36919126       3.56054366
22
Lattice="5.109186987286583 -2.5476491363710227 -0.08254191814807803 -4.079376214904122 10.243933600720421 -4.03005968789538 1.0709219584980147 -8.805250758511288 14.955602746215241" Properties=species:S:1:pos:R:3 unique_starting_index=51 config_type=initial n_minim_iter=12 stress="-0.0006822259791533399 -9.784628846188684e-07 -8.123823830544768e-05 -9.784628846188684e-07 0.00033514587565306104 0.0002298033632626881 -8.123823830544768e-05 0.0002298033632626881 0.0008540155626880739" pbc="T T T"
Si       0.53714034       5.51106103       0.85157988
Si       0.19486878      -0.70138840       8.01234425
Si      -0.62566301       7.07665601      -4.81487275
Si      -0.87461067       4.33480314       2.36286809
Si       0.35148422      -0.00193462       5.35481541
Si       3.06543890      -2.16770128       5.78678062
Si      -0.45671337       1.14384764       0.28217550
Si       0.20698293       2.68145686      -1.38326574
Si       2.08986110      -3.91752152       7.20216394
Si       3.45045049      -4.19432223      11.11646116
Si      -1.38380641       1.00481067       8.66192105
Si       3.06012976      -2.06780920       3.30882650
Si       0.24224312       0.63246808       2.76911792
Si       4.28782386      -7.57268712      13.38669597
Si       2.81555275      -6.38293565      11.83457436
Si       0.96590249       2.90950687       2.62671659
Si       1.55676548      -1.12562005       1.76308886
Si       2.26959858      -0.23530153       6.89201780
Si       2.21623503      -3.12958477       9.43749017
Si       0.53253934      -4.20297277       4.49430231
Si       3.06178539       0.35356623       0.69229065
Si       2.67619790      -4.35740354       3.54842578
22
Lattice="5.120106981826954 -2.5477902951931948 -0.07745057756819726 -4.09226877148361 10.244136216140078 -4.030883448009815 1.0845379821328085 -8.811910795887986 14.931683122276182" Properties=species:S:1:pos:R:3 unique_starting_index=51 config_type=initial n_minim_iter=13 stress="0.00033887585663026524 -1.7512187517249447e-05 4.7566622841089175e-05 -1.7512187517249447e-05 -0.00010244862486776724 -7.214696291359449e-05 4.7566622841089175e-05 -7.214696291359449e-05 -0.0003644966878685348" pbc="T T T"
Si       0.53046210       5.51184811       0.84081190
Si       0.20537086      -0.71121942       8.00962466
Si      -0.62509019       7.07337569      -4.79785079
Si      -0.87148829       4.33114741       2.35623301
Si       0.35234330      -0.00259891       5.34142784
Si       3.07308595      -2.17050305       5.77837168
Si      -0.45279906       1.14210540       0.28091669
Si       0.20114129       2.68454329      -1.38100570
Si       2.10004037      -3.92568519       7.19395839
Si       3.46528140      -4.20333883      11.10142914
Si      -1.37996408       0.99444249       8.63376456
Si       3.06970293      -2.06305728       3.30374564
Si       0.24953598       0.62885522       2.77096546
Si       4.30115033      -7.57677671      13.37159237
Si       2.82427265      -6.38974762      11.81751408
Si       0.97431917       2.90329232       2.61403736
Si       1.56362199      -1.12434727       1.75790434
Si       2.27177886      -0.24192307       6.87744411
Si       2.22766224      -3.13602835       9.42350237
Si       0.53524702      -4.19632489       4.48260659
Si       3.07723743       0.35111376       0.69360257
Si       2.68054228      -4.35232379       3.53602540
22
Lattice="5.117236023045463 -2.5510001416657637 -0.0745572419197683 -4.0957963759798215 10.250110016251888 -4.036080408669135 1.0950112374437717 -8.817976594933018 14.938906123569438" Properties=species:S:1:pos:R:3 unique_starting_index=51 config_type=initial n_minim_iter=14 stress="-7.045748652372553e-05 -4.299693758779705e-05 7.094924067082931e-05 -4.299693758779705e-05 -0.000146620492049702 -8.100686457330103e-05 7.094924067082931e-05 -8.100686457330103e-05 -0.00011655514918978251" pbc="T T T"
Si       0.51767007       5.51885103       0.83156132
Si       0.21640398      -0.72126876       8.02683155
Si      -0.62356853       7.07172725      -4.79004932
Si      -0.86520046       4.33227195       2.35869380
Si       0.34864470      -0.00069174       5.33497600
Si       3.06944355      -2.17559366       5.78415255
Si      -0.44935522       1.14196806       0.28420300
Si       0.19245071       2.68878245      -1.38147299
Si       2.10785160      -3.93301556       7.19818427
Si       3.47070423      -4.21036316      11.11302235
Si      -1.36975097       0.98632508       8.62949296
Si       3.07344427      -2.05770652       3.30430907
Si       0.25698686       0.62635644       2.78446563
Si       4.30150253      -7.58299329      13.37976938
Si       2.82286322      -6.39487725      11.82076942
Si       0.97828200       2.90189750       2.60955638
Si       1.56346938      -1.12476191       1.75869594
Si       2.26181586      -0.24474685       6.87759446
Si       2.23257908      -3.14182619       9.42855760
Si       0.53353481      -4.19112109       4.48005210
Si       3.08399159       0.34632654       0.69907472
Si       2.68268005      -4.34635336       3.52697150
22
Lattice="5.1164459175985035 -2.5525464645368823 -0.07333309922919713 -4.097524059894989 10.2535895163556 -4.0378953618149 1.0993601217154223 -8.82148204030032 14.94037511960729" Properties=species:S:1:pos:R:3 unique_starting_index=51 config_type=initial n_minim_iter=15 stress="-7.037201432802842e-05 9.39100137244161e-06 -2.3460571061773555e-06 9.39100137244161e-06 1.8943069332172035e-06 1.731229408895882e-05 -2.3460571061773555e-06 1.731229408895882e-05 2.021260739257572e-05" pbc="T T T"
Si       0.51098191       5.52304599       0.82585258
Si       0.22221913      -0.72770632       8.03491287
Si      -0.62255010       7.07096027      -4.78564863
Si      -0.86137464       4.33358675       2.36004320
Si       0.34597938       0.00072700       5.32908182
Si       3.06711818      -2.17833002       5.78665827
Si      -0.44785233       1.14225953       0.28687175
Si       0.18788108       2.69066701      -1.38206021
Si       2.11258934      -3.93690093       7.19857520
Si       3.47323771      -4.21330751      11.11744642
Si      -1.36366355       0.98118787       8.62736709
Si       3.07588385      -2.05423707       3.30410255
Si       0.26171741       0.62580847       2.79288704
Si       4.30116063      -7.58629464      13.38072323
Si       2.82102000      -6.39739159      11.81932389
Si       0.98077576       2.90209058       2.60767544
Si       1.56283219      -1.12549240       1.76018099
Si       2.25502295      -0.24551160       6.87563253
Si       2.23587539      -3.14547948       9.42978790
Si       0.53212050      -4.18894506       4.47788324
Si       3.08739658       0.34382066       0.70233025
Si       2.68390520      -4.34324356       3.52052986
22
Lattice="5.115908157131601 -2.5553166738659896 -0.069143371814563 -4.103211778916862 10.259345361050325 -4.046380287121133 1.111024625834644 -8.83216991871939 14.946896096454962" Properties=species:S:1:pos:R:3 unique_starting_index=51 config_type=initial n_minim_iter=16 stress="-2.2585868858221435e-05 7.74426416304827e-05 -0.0001120515232710633 7.74426416304827e-05 0.00019106437076167956 0.00016566325179615308 -0.0001120515232710633 0.00016566325179615308 0.00019477394955014666" pbc="T T T"
Si       0.49798689       5.52824237       0.81163762
Si       0.23472912      -0.74586669       8.05156353
Si      -0.62385195       7.06854647      -4.78016919
Si      -0.85372144       4.33445245       2.36005108
Si       0.34198522       0.00135655       5.31757049
Si       3.06445607      -2.18510332       5.79274831
Si      -0.44339964       1.14271220       0.29202804
Si       0.17830033       2.69334520      -1.38540253
Si       2.12404809      -3.94702335       7.20126691
Si       3.47922515      -4.22208492      11.12686929
Si      -1.35052108       0.96680314       8.62350370
Si       3.08037771      -2.04784708       3.30612744
Si       0.27245435       0.62554134       2.81059885
Si       4.30328456      -7.59599268      13.38613763
Si       2.81993365      -6.40683469      11.81948514
Si       0.98665046       2.90083724       2.60351081
Si       1.56267790      -1.12766371       1.76514590
Si       2.24151022      -0.24933876       6.86955623
Si       2.24785940      -3.15705042       9.43473828
Si       0.53244047      -4.18574651       4.47463976
Si       3.09215645       0.33957293       0.70830177
Si       2.68436839      -4.33893653       3.50912518
22
Lattice="5.118063670350993 -2.555690630136984 -0.06302915243253521 -4.110571896645649 10.259689622090473 -4.06211200403894 1.1226689583213323 -8.847149849653766 14.95796513243116" Properties=species:S:1:pos:R:3 unique_starting_index=51 config_type=initial n_minim_iter=17 stress="5.2625381569815646e-05 -4.567597211494356e-05 3.232224085349833e-05 -4.567597211494356e-05 -1.393645107555877e-06 -7.861760763943551e-05 3.232224085349833e-05 -7.861760763943551e-05 4.5702817777430677e-05" pbc="T T T"
Si       0.49496143       5.52245794       0.79963129
Si       0.24046621      -0.76490019       8.05697199
Si      -0.63185500       7.06653592      -4.78700250
Si      -0.85109061       4.32968019       2.35199148
Si       0.34427247      -0.00455142       5.31555127
Si       3.06961018      -2.19089308       5.79705669
Si      -0.43868498       1.14286448       0.29201086
Si       0.17411371       2.69164009      -1.39140046
Si       2.13251890      -3.95659773       7.20814525
Si       3.48415031      -4.23480887      11.13148441
Si      -1.34371498       0.95178352       8.62196839
Si       3.08115531      -2.04905887       3.31359903
Si       0.27791255       0.62731466       2.81723620
Si       4.31176749      -7.60959576      13.39706788
Si       2.82680117      -6.42293686      11.82748907
Si       0.99021648       2.89678627       2.60012977
Si       1.56544967      -1.12962689       1.77149358
Si       2.23838177      -0.25696232       6.86214391
Si       2.26334865      -3.17157682       9.44187270
Si       0.54017231      -4.18929852       4.47726731
Si       3.08813910       0.34038460       0.70809642
Si       2.68051362      -4.34275400       3.51046071
22
Lattice="5.118605349670066 -2.5570124276178006 -0.05953290734450777 -4.116032267319232 10.260574945022427 -4.066721294177265 1.133147167915143 -8.851342782830551 14.957124667845786" Properties=species:S:1:pos:R:3 unique_starting_index=51 config_type=initial n_minim_iter=18 stress="-9.235237995845002e-05 0.00015564647703388142 -3.4193089967648324e-05 0.00015564647703388142 -6.920720310050213e-05 0.0001888841702103028 -3.4193089967648324e-05 0.0001888841702103028 -0.00037576419440097573" pbc="T T T"
Si       0.48174090       5.52616714       0.78203740
Si       0.25160742      -0.78389375       8.07442218
Si      -0.62889021       7.05624262      -4.77064350
Si      -0.84069943       4.32618222       2.34820846
Si       0.33948369      -0.00105656       5.30603528
Si       3.07175800      -2.19160119       5.79912380
Si      -0.43099570       1.14387327       0.29315496
Si       0.16283982       2.69190525      -1.39243485
Si       2.14346244      -3.96349270       7.21425907
Si       3.49043001      -4.24426291      11.13546404
Si      -1.33086285       0.93813009       8.60912968
Si       3.08510224      -2.04245488       3.31813421
Si       0.28760874       0.63065397       2.83697991
Si       4.31282539      -7.61339801      13.39956760
Si       2.82380074      -6.43138628      11.82417459
Si       0.99823786       2.89619271       2.59113265
Si       1.56810306      -1.12590063       1.77505220
Si       2.22381469      -0.25814087       6.84933745
Si       2.27282679      -3.17751651       9.44350305
Si       0.54110116      -4.18398705       4.47047050
Si       3.09256155       0.33959966       0.70899954
Si       2.67684957      -4.33337721       3.49473967
22
Lattice="5.1187630916464455 -2.557216272136606 -0.05810777450102359 -4.117581136102931 10.26100411543946 -4.073225755430746 1.1345100768798007 -8.857969014058344 14.96433765502344" Properties=species:S:1:pos:R:3 unique_starting_index=51 config_type=initial n_minim_iter=19 stress="-0.00012828914883765785 6.230785338308144e-05 -5.3392211318860956e-05 6.230785338308144e-05 -0.00011891778029147866 9.431342616187127e-05 -5.3392211318860956e-05 9.431342616187127e-05 -0.00025330399801679087" pbc="T T T"
Si       0.48232574       5.52301621       0.77626414
Si       0.25039038      -0.79142019       8.07330250
Si      -0.63001518       7.05549304      -4.77767352
Si      -0.84115244       4.32435702       2.34299853
Si       0.33936712      -0.00338438       5.30696720
Si       3.07498624      -2.19370338       5.80254486
Si      -0.43241160       1.14532286       0.29192945
Si       0.16243721       2.68882948      -1.39493114
Si       2.14629165      -3.96506206       7.21872492
Si       3.49073878      -4.25173363      11.14026390
Si      -1.32799166       0.93258440       8.61299571
Si       3.08524812      -2.04649994       3.32319080
Si       0.28583286       0.63307007       2.83966550
Si       4.31584414      -7.62175933      13.40334771
Si       2.82548864      -6.43819028      11.82741401
Si       0.99783125       2.89809724       2.59140164
Si       1.56720523      -1.12583907       1.78091371
Si       2.22118144      -0.25989269       6.84640329
Si       2.27295680      -3.18082141       9.44659561
Si       0.54166372      -4.19071779       4.47584565
Si       3.08584979       0.34080397       0.70666674
Si       2.67845092      -4.33639678       3.49860896
22
Lattice="5.120569329455621 -2.55881083341227 -0.052893439424375376 -4.124632397111852 10.264914916524619 -4.089303187824358 1.1452477660102014 -8.873839436859136 14.983080610054868" Properties=species:S:1:pos:R:3 unique_starting_index=51 config_type=initial n_minim_iter=20 stress="8.822156248238796e-05 -9.473981324338606e-05 2.0848996183152788e-05 -9.473981324338606e-05 0.00014250139567627114 -0.00012210254540266183 2.0848996183152788e-05 -0.00012210254540266183 0.0003737375997722873" pbc="T T T"
Si       0.47967344       5.52106044       0.76188867
Si       0.25521741      -0.80964359       8.08069018
Si      -0.63462532       7.05572703      -4.78636448
Si      -0.84083759       4.32255745       2.33401194
Si       0.33944838      -0.00752411       5.30849529
Si       3.08251326      -2.20022424       5.81381428
Si      -0.43374115       1.14703324       0.29060410
Si       0.15891844       2.68611627      -1.40052424
Si       2.15721323      -3.97213345       7.22938799
Si       3.49796677      -4.26788481      11.15505259
Si      -1.31874779       0.91879398       8.61683751
Si       3.08837513      -2.05050836       3.33257233
Si       0.28634053       0.63577576       2.84876415
Si       4.32663473      -7.63974679      13.41747459
Si       2.83201666      -6.45498033      11.83945547
Si       1.00047026       2.89935435       2.58998297
Si       1.56782782      -1.12561295       1.79116349
Si       2.21616530      -0.26501493       6.84348125
Si       2.28118661      -3.19088078       9.45843561
Si       0.54367514      -4.20023358       4.48422866
Si       3.07943328       0.34078414       0.70489807
Si       2.68320870      -4.34057145       3.50364916
22
Lattice="5.125632182780547 -2.558274577913975 -0.04865695201080294 -4.13241429097102 10.262015667461087 -4.092513795608775 1.1567466293776643 -8.875505204146194 14.974765626545086" Properties=species:S:1:pos:R:3 unique_starting_index=51 config_type=initial n_minim_iter=21 stress="1.3450261761005824e-05 -2.1776996354670832e-05 8.115817901527985e-05 -2.1776996354670832e-05 -7.459000500520467e-05 -5.609660409755705e-07 8.115817901527985e-05 -5.609660409755705e-07 -5.900904832482522e-05" pbc="T T T"
Si       0.47799113       5.52187460       0.74621507
Si       0.26538422      -0.82364084       8.08458837
Si      -0.63795687       7.05257358      -4.77223718
Si      -0.84126782       4.32262342       2.32404159
Si       0.33804360      -0.00549032       5.30276221
Si       3.09199062      -2.20046775       5.82053284
Si      -0.43745271       1.14683990       0.28903042
Si       0.15593441       2.68338665      -1.40274413
Si       2.16980212      -3.97493347       7.22708248
Si       3.51041732      -4.27250142      11.15244844
Si      -1.30905543       0.90607013       8.60000261
Si       3.09340198      -2.04433538       3.33229650
Si       0.28917222       0.63882399       2.85547909
Si       4.33960760      -7.64139167      13.40932011
Si       2.83670034      -6.46274109      11.83383252
Si       1.00809466       2.89822931       2.58502354
Si       1.57122730      -1.12093640       1.79588827
Si       2.21076422      -0.26603856       6.83310400
Si       2.29473186      -3.19449221       9.46156498
Si       0.54406726      -4.20023427       4.47779773
Si       3.08316589       0.33848497       0.70273007
Si       2.68780778      -4.33780618       3.49690680
