24
Lattice="8.45233191194101 -1.4094711861859748e-11 1.3802719783575316e-14 4.2261659559827125 7.319934156951762 -2.1294000276707193e-14 4.226165955974549 2.439978052312614 15.128290157649388" Properties=species:S:1:pos:R:3 unique_starting_index=24 config_type=initial n_minim_iter=1 energy=-3910.1178014073125 free_energy=-3910.1178014073125 pbc="T T T"
Si       9.44731045       4.33961550      16.07391385
Si       8.42279049       6.01180310      16.07391385
Si       7.48689353       4.28844898      16.07391385
Si       9.74304272       4.60833317      10.79712626
Si       8.04220803       6.13355592      10.79712626
Si       7.57174372       3.89797849      10.79712626
Si      10.10852280       3.90723773       2.67506518
Si       8.46663445       6.80061868       2.67506518
Si       6.78183722       3.93201118       2.67506518
Si       9.42981761       5.43491373       3.55141997
Si       7.48298082       5.44900473       3.55141997
Si       8.44419605       3.75594912       3.55141997
Si      10.63540447       6.80387196      11.33669149
Si       5.69463479       5.80859448      11.33669149
Si       9.02695521       2.02740115      11.33669149
Si      10.81361631       3.40392079      12.42132007
Si       8.54997295       7.66290604      12.42132007
Si       5.99340521       3.57304076      12.42132007
Si       9.70878123       9.14802607      11.01368857
Si       4.12784939       3.83403815      11.01368857
Si      11.52036385       1.65780336      11.01368857
Si       4.24239356       1.32281039       2.54271133
Si       5.18554689       3.01261540       2.54271133
Si       3.25055616       2.98450764       2.54271133
24
Lattice="8.45927760871469 -1.4110652955441869e-11 1.3742511135920192e-14 4.229638804369565 7.325949306804742 -2.120022477873371e-14 4.229638804361394 2.4419831022636025 15.147271504305579" Properties=species:S:1:pos:R:3 unique_starting_index=24 config_type=initial n_minim_iter=2 stress="0.0022258083304077976 -6.370081405095043e-16 -2.793563364061361e-16 -6.370081405095043e-16 0.0022258083304082725 4.66579486503898e-16 -2.793563364061361e-16 4.66579486503898e-16 0.00048160499080777166" pbc="T T T"
Si       9.45417117       4.34316946      16.09464761
Si       8.43017371       6.01596768      16.09464761
Si       7.49348668       4.29276075      16.09464761
Si       9.75080207       4.61235381      10.81036099
Si       8.04873777       6.13826539      10.81036099
Si       7.57829172       3.90127868      10.81036099
Si      10.11736465       3.91029158       2.67780544
Si       8.47346021       6.80674902       2.67780544
Si       6.78700671       3.93485729       2.67780544
Si       9.43782051       5.43947166       3.55631404
Si       7.48892348       5.45365649       3.55631404
Si       8.45108757       3.75876974       3.55631404
Si      10.64412465       6.80987773      11.35133652
Si       5.69896494       5.81314349      11.35133652
Si       9.03474197       2.02887667      11.35133652
Si      10.82279123       3.40664930      12.43686800
Si       8.55691392       7.66948750      12.43686800
Si       5.99812640       3.57576109      12.43686800
Si       9.71690887       9.15528775      11.02731399
Si       4.13138817       3.83744605      11.02731399
Si      11.52953452       1.65916408      11.02731399
Si       4.24599826       1.32418386       2.54563543
Si       5.18950078       3.01505043       2.54563543
Si       3.25341611       2.98671430       2.54563543
24
Lattice="8.449737459015507 -1.4109055616854796e-11 1.3728723182223938e-14 4.224868729519974 7.317687294809341 -2.148880141360048e-14 4.224868729511799 2.4392290982651357 15.186045915024863" Properties=species:S:1:pos:R:3 unique_starting_index=24 config_type=initial n_minim_iter=3 stress="-0.00023745752295260133 1.2462037962243665e-16 -1.0225610561334377e-15 1.2462037962243665e-16 -0.00023745752295296552 -1.5234664055361444e-16 -1.0225610561334377e-15 -1.5234664055361444e-16 0.0009894982222773113" pbc="T T T"
Si       9.44036383       4.33825951      16.13790182
Si       8.42224922       6.00646514      16.13790182
Si       7.48659807       4.29064921      16.13790182
Si       9.73895953       4.60796135      10.83698593
Si       8.03938273       6.13020568      10.83698593
Si       7.57086886       3.89720683      10.83698593
Si      10.10757940       3.90545938       2.68280291
Si       8.46345734       6.80069084       2.68280291
Si       6.77817438       3.92922364       2.68280291
Si       9.42778334       5.43352708       3.56663066
Si       7.48000992       5.44793634       3.56663066
Si       8.44141785       3.75391044       3.56663066
Si      10.63201905       6.80362114      11.38185929
Si       5.69135581       5.80578802      11.38185929
Si       9.02583625       2.02596470      11.38185929
Si      10.81158563       3.40257381      12.46852540
Si       8.54696590       7.66182091      12.46852540
Si       5.99065958       3.57097915      12.46852540
Si       9.70644163       9.14409384      11.05489624
Si       4.12723570       3.83397812      11.05489624
Si      11.51553378       1.65730191      11.05489624
Si       4.24160022       1.32353055       2.55114836
Si       5.18272543       3.01156826       2.55114836
Si       3.25027928       2.98258775       2.55114836
24
Lattice="8.451218046804353 -1.4123437413440104e-11 1.3684145757597636e-14 4.22560902341441 7.31896952144701 -2.1484511094441906e-14 4.225609023406226 2.4396565071443526 15.169385522485817" Properties=species:S:1:pos:R:3 unique_starting_index=24 config_type=initial n_minim_iter=4 stress="0.0001248996055637314 2.612594838226911e-16 -1.3595432378273191e-15 2.612594838226911e-16 0.00012489960556339154 -3.089440725819957e-16 -1.3595432378273191e-15 -3.089440725819957e-16 -0.0007704938062134842" pbc="T T T"
Si       9.43985639       4.33853787      16.12222366
Si       8.42522305       6.00588651      16.12222366
Si       7.48857344       4.29351394      16.12222366
Si       9.73997020       4.60952890      10.82412678
Si       8.04048103       6.13029718      10.82412678
Si       7.57320165       3.89811224      10.82412678
Si      10.10878576       3.90690876       2.67899454
Si       8.46456013       6.80101089       2.67899454
Si       6.78030699       3.93001867       2.67899454
Si       9.42967565       5.43464804       3.56302885
Si       7.48105417       5.44901465       3.56302885
Si       8.44292306       3.75427563       3.56302885
Si      10.63377086       6.80628435      11.37093688
Si       5.69113467       5.80597353      11.37093688
Si       9.02874735       2.02568044      11.37093688
Si      10.81445671       3.40300716      12.45454585
Si       8.54811625       7.66409066      12.45454585
Si       5.99107992       3.57084049      12.45454585
Si       9.70865877       9.14482047      11.04211759
Si       4.12845903       3.83553489      11.04211759
Si      11.51653508       1.65758295      11.04211759
Si       4.24264876       1.32485671       2.54723363
Si       5.18253326       3.01181326       2.54723363
Si       3.25164378       2.98229883       2.54723363
24
Lattice="8.444932095152305 -1.415713918250186e-11 1.3652153053920338e-14 4.222466047588415 7.313525727629358 -2.14113684668075e-14 4.222466047580211 2.4378419092051247 15.270093416762323" Properties=species:S:1:pos:R:3 unique_starting_index=24 config_type=initial n_minim_iter=5 stress="-0.00019636274189147607 -2.5662683878164904e-17 -7.311510530609276e-16 -2.5662683878164904e-17 -0.0001963627418919978 -3.0842308147152316e-16 -7.311510530609276e-16 -3.0842308147152316e-16 0.0009111764828641478" pbc="T T T"
Si       9.42772495       4.32955685      16.23571832
Si       8.42649465       5.99987089      16.23571832
Si       7.48057542       4.29762299      16.23571832
Si       9.72958713       4.61018512      10.89093792
Si       8.03253235       6.12097706      10.89093792
Si       7.57267554       3.89588855      10.89093792
Si      10.09685992       3.90850513       2.69456899
Si       8.45656866       6.78988462       2.69456899
Si       6.78136645       3.92866098       2.69456899
Si       9.42192856       5.43130841       3.58558244
Si       7.47524801       5.44397528       3.58558244
Si       8.43761845       3.75176704       3.58558244
Si      10.62524281       6.80936721      11.45531481
Si       5.68015696       5.79704659      11.45531481
Si       9.02939525       2.02063693      11.45531481
Si      10.81169785       3.39990879      12.53514366
Si       8.53960704       7.66325060      12.53514366
Si       5.98349014       3.56389134      12.53514366
Si       9.70417309       9.13331470      11.11173483
Si       4.12809426       3.83740307      11.11173483
Si      11.50252768       1.65633296      11.11173483
Si       4.24061845       1.32069124       2.56293380
Si       5.18086986       3.01213769       2.56293380
Si       3.24590857       2.98069607       2.56293380
24
Lattice="8.447166474115747 -1.419253815065527e-11 1.3556618829295307e-14 4.223583237070168 7.315460756573359 -2.1371499607731723e-14 4.223583237061942 2.4384869188531137 15.251762702462221" Properties=species:S:1:pos:R:3 unique_starting_index=24 config_type=initial n_minim_iter=6 stress="2.748811537991196e-05 -1.128739227802344e-15 -4.822644957861403e-16 -1.128739227802344e-15 2.7488115378926226e-05 -2.2184284604036362e-16 -4.822644957861403e-16 -2.2184284604036362e-16 -0.0005490662829739246" pbc="T T T"
Si       9.42941391       4.32551445      16.22134097
Si       8.43361976       6.00335476      16.22134097
Si       7.47846449       4.30205158      16.22134097
Si       9.73086444       4.61436449      10.87460864
Si       8.03274302       6.11999356      10.87460864
Si       7.57789070       3.89656273      10.87460864
Si      10.09973828       3.91088647       2.68868324
Si       8.45753593       6.79118669       2.68868324
Si       6.78422395       3.92884763       2.68868324
Si       9.42453912       5.43391279       3.58088974
Si       7.47615603       5.44493390       3.58088974
Si       8.44080301       3.75207409       3.58088974
Si      10.62754858       6.81753238      11.44874849
Si       5.67640158       5.79496086      11.44874849
Si       9.03754799       2.01842754      11.44874849
Si      10.81847573       3.40088798      12.51773048
Si       8.53983886       7.66863082      12.51773048
Si       5.98318358       3.56140199      12.51773048
Si       9.70869847       9.13230529      11.09551629
Si       4.13117450       3.84182687      11.09551629
Si      11.50162519       1.65678863      11.09551629
Si       4.24157117       1.31726305       2.55909988
Si       5.18559678       3.01467686       2.55909988
Si       3.24358049       2.98352012       2.55909988
24
Lattice="8.434171580117907 -1.4234570713036136e-11 1.3398937662598994e-14 4.217085790071282 7.304206848251725 -2.145175108541172e-14 4.217085790063034 2.434735616079221 15.303221838810098" Properties=species:S:1:pos:R:3 unique_starting_index=24 config_type=initial n_minim_iter=7 stress="-6.0029312601492344e-05 -1.5283387707170398e-15 -3.6665763311970286e-16 -1.5283387707170398e-15 -6.002931260054458e-05 1.7482038103940866e-16 -3.6665763311970286e-16 1.7482038103940866e-16 0.00025403835724294063" pbc="T T T"
Si       9.41822119       4.30755364      16.28376421
Si       8.42878085       6.00264199      16.28376421
Si       7.45551144       4.29821735      16.28376421
Si       9.71597693       4.61389937      10.90554136
Si       8.01459979       6.10733316      10.90554136
Si       7.57193676       3.88718044      10.90554136
Si      10.08432661       3.90841141       2.69124884
Si       8.44139545       6.77907732       2.69124884
Si       6.77679142       3.92092424       2.69124884
Si       9.40993962       5.42803940       3.59203518
Si       7.46255250       5.43522706       3.59203518
Si       8.43002136       3.74514651       3.59203518
Si      10.61006767       6.82150721      11.50450263
Si       5.65570995       5.77783454      11.50450263
Si       9.03673586       2.00907123      11.50450263
Si      10.81043530       3.39731572      12.55268630
Si       8.52096295       7.66345374      12.55268630
Si       5.97111523       3.54764351      12.55268630
Si       9.69738022       9.11125909      11.12607331
Si       4.12907037       3.84254808      11.12607331
Si      11.47606288       1.65460580      11.12607331
Si       4.23132211       1.31788948       2.57027329
Si       5.17718391       3.00548770       2.57027329
Si       3.24275008       2.98082894       2.57027329
24
Lattice="8.429749074141075 -1.4375588394924446e-11 1.3290673926315573e-14 4.214874537082987 7.300376845727329 -2.157215406556334e-14 4.214874537074656 2.4334589485710416 15.295672839223942" Properties=species:S:1:pos:R:3 unique_starting_index=24 config_type=initial n_minim_iter=8 stress="0.0002202129425243401 -1.468422630829448e-15 -4.257246173477022e-16 -1.468422630829448e-15 0.00022021294252529594 7.508416440048407e-16 -4.257246173477022e-16 7.508416440048407e-16 0.0008172312895088715" pbc="T T T"
Si       9.40829838       4.29568439      16.28664204
Si       8.43517631       5.99998322      16.28664204
Si       7.44577127       4.30508537      16.28664204
Si       9.72420166       4.63036146      10.89205161
Si       7.98738582       6.10622494      10.89205161
Si       7.57765848       3.86416656      10.89205161
Si      10.08077829       3.91690132       2.67767139
Si       8.42697212       6.77175943       2.67767139
Si       6.78149555       3.91209222       2.67767139
Si       9.40572920       5.43036550       3.58329514
Si       7.45379823       5.43041769       3.58329514
Si       8.42971852       3.73996978       3.58329514
Si      10.60349108       6.85569123      11.54702454
Si       5.62054900       5.75504703      11.54702454
Si       9.06520588       1.99001471      11.54702454
Si      10.82626530       3.40693581      12.52043292
Si       8.49587170       7.67235287      12.52043292
Si       5.96710897       3.52146428      12.52043292
Si       9.69782125       9.09191317      11.09983116
Si       4.13675891       3.85260298      11.09983116
Si      11.45466580       1.65623682      11.09983116
Si       4.20848836       1.31619610       2.58404086
Si       5.18564480       2.98655978       2.58404086
Si       3.25048919       2.99762024       2.58404086
24
Lattice="8.439635887079442 -1.458395975302542e-11 1.3127531067364497e-14 4.219817943552353 7.308939076894318 -2.1639252973546706e-14 4.219817943543901 2.436313025626634 15.241928881387924" Properties=species:S:1:pos:R:3 unique_starting_index=24 config_type=initial n_minim_iter=9 stress="0.00044415483025187397 -1.3220720889380964e-15 -7.4623388406969455e-16 -1.3220720889380964e-15 0.00044415483025263443 5.545535055087116e-16 -7.4623388406969455e-16 5.545535055087116e-16 0.00013024439574489" pbc="T T T"
Si       9.40800596       4.29242360      16.24276255
Si       8.45792008       6.00136036      16.24276255
Si       7.45298037       4.32409347      16.24276255
Si       9.75776254       4.66831513      10.84811799
Si       7.95751017       6.11631268      10.84811799
Si       7.60363369       3.83324962      10.84811799
Si      10.09621214       3.92929699       2.65503419
Si       8.42829385       6.77892770       2.65503419
Si       6.79440041       3.90965273       2.65503419
Si       9.40555626       5.44388989       3.56055286
Si       7.46194586       5.42350572       3.56055286
Si       8.45140427       3.75048182       3.56055286
Si      10.61794382       6.91085179      11.57017993
Si       5.58532581       5.73998319      11.57017993
Si       9.11563677       1.96704245      11.57017993
Si      10.86680982       3.43109261      12.43987222
Si       8.47445266       7.69538706      12.43987222
Si       5.97764391       3.49139776      12.43987222
Si       9.71008865       9.08736308      11.03019753
Si       4.15433932       3.86550191      11.03019753
Si      11.45447842       1.66501244      11.03019753
Si       4.18898074       1.31743733       2.59413069
Si       5.20421048       2.96904507       2.59413069
Si       3.26626135       3.02245595       2.59413069
24
Lattice="8.450817003869354 -1.478720012594097e-11 1.3076366129819061e-14 4.2254085019474825 7.3186222080769605 -2.1668134101587474e-14 4.225408501938914 2.43954073602078 15.189134181246725" Properties=species:S:1:pos:R:3 unique_starting_index=24 config_type=initial n_minim_iter=10 stress="-7.867281149517417e-05 -4.8548925160914e-16 -1.194991374792069e-15 -4.8548925160914e-16 -7.867281149484232e-05 6.947294463447735e-16 -1.194991374792069e-15 6.947294463447735e-16 -0.0012931465492288675" pbc="T T T"
Si       9.40775413       4.29073497      16.19808020
Si       8.48187062       6.00198659      16.19808020
Si       7.46282500       4.34452214      16.19808020
Si       9.79541013       4.72572960      10.81410617
Si       7.91132621       6.12020921      10.81410617
Si       7.64571340       3.79130487      10.81410617
Si      10.12120894       3.94722521       2.64222439
Si       8.42263139       6.79161146       2.64222439
Si       6.80860942       3.89840702       2.64222439
Si       9.42151072       5.44607866       3.53286403
Si       7.47443533       5.43622830       3.53286403
Si       8.45650369       3.75493673       3.53286403
Si      10.64068152       6.96007030      11.59126761
Si       5.55369472       5.73506536      11.59126761
Si       9.15807351       1.94210803      11.59126761
Si      10.90693681       3.46306049      12.35857094
Si       8.44906640       7.71415411      12.35857094
Si       5.99644654       3.46002909      12.35857094
Si       9.71036684       9.09022739      10.95538449
Si       4.17408191       3.86431067      10.95538449
Si      11.46800100       1.68270563      10.95538449
Si       4.18101028       1.32014715       2.60262657
Si       5.21703006       2.96078755       2.60262657
Si       3.27818390       3.03768679       2.60262657
24
Lattice="8.460490756656943 -1.510817629082803e-11 1.2951223034724338e-14 4.230245378341555 7.326999923740785 -2.175118816246327e-14 4.2302453783328025 2.4423333079086147 15.22088996773636" Properties=species:S:1:pos:R:3 unique_starting_index=24 config_type=initial n_minim_iter=11 stress="2.36344033049483e-05 -1.0166282729940079e-16 -1.1529940932167638e-15 -1.0166282729940079e-16 2.3634403305636406e-05 8.2595899323478015e-16 -1.1529940932167638e-15 8.2595899323478015e-16 -0.000987690585662976" pbc="T T T"
Si       9.40099590       4.27848237      16.25535177
Si       8.51520829       6.00226009      16.25535177
Si       7.46526681       4.37325666      16.25535177
Si       9.84424530       4.84417906      10.85210314
Si       7.80367589       6.10327698      10.85210314
Si       7.73354981       3.70654308      10.85210314
Si      10.14622106       3.95595612       2.64980055
Si       8.42191164       6.80890713       2.64980055
Si       6.81333830       3.88913587       2.64980055
Si       9.43189706       5.46631075       3.51198334
Si       7.47106817       5.43510709       3.51198334
Si       8.47850578       3.75258128       3.51198334
Si      10.67513459       7.02891254      11.71339210
Si       5.49619655       5.73048147      11.71339210
Si       9.21013986       1.89460511      11.71339210
Si      10.95889591       3.51767952      12.32030350
Si       8.39513289       7.73184249      12.32030350
Si       6.02744221       3.40447710      12.32030350
Si       9.68539148       9.08679485      10.90996571
Si       4.20888975       3.84439764      10.90996571
Si      11.48718978       1.72280663      10.90996571
Si       4.17947841       1.32615379       2.63002595
Si       5.22226784       2.95645759       2.63002595
Si       3.28898862       3.04438782       2.63002595
24
Lattice="8.469186791503228 -1.5369907667998223e-11 1.304235761516975e-14 4.234593395764925 7.334530910829731 -2.1781590860965885e-14 4.2345933957560185 2.4448436369381765 15.304965809738517" Properties=species:S:1:pos:R:3 unique_starting_index=24 config_type=initial n_minim_iter=12 stress="0.0007725695742008818 -1.5143867918876987e-15 7.803155878619373e-16 -1.5143867918876987e-15 0.0007725695742011629 3.6500657128269495e-16 7.803155878619373e-16 3.6500657128269495e-16 -0.00021165991279690057" pbc="T T T"
Si       9.40459323       4.26738803      16.36839874
Si       8.54040968       6.01092264      16.36839874
Si       7.46255619       4.39075043      16.36839874
Si       9.87989928       4.96472487      10.93345912
Si       7.69884524       6.07388133      10.93345912
Si       7.82881459       3.63045490      10.93345912
Si      10.16634259       3.96137905       2.66860306
Si       8.42454655       6.82362143       2.66860306
Si       6.81666996       3.88406062       2.66860306
Si       9.43334485       5.47513907       3.51062847
Si       7.48009079       5.43194675       3.51062847
Si       8.49412346       3.76197527       3.51062847
Si      10.70896802       7.08367688      11.85229835
Si       5.44924460       5.73239992      11.85229835
Si       9.24934649       1.85298430      11.85229835
Si      10.99715705       3.56433337      12.33474952
Si       8.35299097       7.74165069      12.33474952
Si       6.05741109       3.36307704      12.33474952
Si       9.65702448       9.08084220      10.91069306
Si       4.24562047       3.82280743      10.91069306
Si      11.50491416       1.76541147      10.91069306
Si       4.18718813       1.33164773       2.65541180
Si       5.22235112       2.96038743       2.65541180
Si       3.29423967       3.04249502       2.65541180
24
Lattice="8.461157005298041 -1.5282641290449015e-11 1.3082008976057862e-14 4.230578502662257 7.327576911989124 -2.1646344657722218e-14 4.2305785026534 2.44252563732467 15.377480319871307" Properties=species:S:1:pos:R:3 unique_starting_index=24 config_type=initial n_minim_iter=13 stress="-0.0014594047326833223 -2.0709249486212242e-15 8.921358709972483e-16 -2.0709249486212242e-15 -0.0014594047326836363 4.1505253307035526e-16 8.921358709972483e-16 4.1505253307035526e-16 -0.0006305022782954007" pbc="T T T"
Si       9.40886392       4.27321693      16.44208700
Si       8.51716679       6.01170671      16.44208700
Si       7.45743904       4.37022946      16.44208700
Si       9.85586273       4.99052270      11.00698289
Si       7.67246237       6.04016615      11.00698289
Si       7.85514465       3.62446425      11.00698289
Si      10.15016730       3.94682517       2.69108430
Si       8.42917865       6.81689015       2.69108430
Si       6.80412380       3.89143777       2.69108430
Si       9.42283029       5.46733845       3.53476329
Si       7.47604403       5.42674118       3.53476329
Si       8.48459542       3.76107346       3.53476329
Si      10.70579309       7.05807321      11.87511435
Si       5.45694592       5.74245218      11.87511435
Si       9.22073074       1.85462771      11.87511435
Si      10.96687814       3.55963122      12.39970773
Si       8.35614303       7.71777946      12.39970773
Si       6.06044858       3.37774241      12.39970773
Si       9.63370175       9.07019378      10.96787483
Si       4.25044406       3.80793356      10.96787483
Si      11.49932394       1.77702576      10.96787483
Si       4.20361156       1.33096373       2.65413363
Si       5.20670198       2.97495254       2.65413363
Si       3.28142070       3.02165991       2.65413363
24
Lattice="8.44724467543518 -1.5480874718040553e-11 1.3040789644193214e-14 4.223622337730999 7.31552848090196 -2.212591189820518e-14 4.223622337722028 2.438509493628881 15.527425730536079" Properties=species:S:1:pos:R:3 unique_starting_index=24 config_type=initial n_minim_iter=14 stress="0.0008197499108263909 5.674145283326962e-16 2.959357761898313e-16 5.674145283326962e-16 0.0008197499108261567 7.207662882203281e-16 2.959357761898313e-16 7.207662882203281e-16 4.815019163289942e-05" pbc="T T T"
Si       9.40372425       4.26741407      16.62336978
Si       8.49693739       6.01015706      16.62336978
Si       7.44107112       4.35348511      16.62336978
Si       9.83351853       5.09863789      11.14362060
Si       7.56217931       5.96675791      11.14362060
Si       7.94603492       3.56566043      11.14362060
Si      10.12444080       3.94405604       2.70721999
Si       8.41661539       6.79599491       2.70721999
Si       6.80067658       3.89100528       2.70721999
Si       9.40390580       5.45772089       3.57284384
Si       7.46601067       5.41516087       3.57284384
Si       8.47181629       3.75817447       3.57284384
Si      10.70515345       7.10130910      12.03513044
Si       5.39199771       5.72028030      12.03513044
Si       9.24458160       1.80946684      12.03513044
Si      10.95919583       3.58098471      12.46800836
Si       8.31366687       7.70044965      12.46800836
Si       6.06887006       3.34962188      12.46800836
Si       9.60407809       9.01530518      11.03765593
Si       4.28496615       3.80972301      11.03765593
Si      11.45268852       1.80602804      11.03765593
Si       4.19674642       1.32563810       2.68179333
Si       5.20083435       2.97166997       2.68179333
Si       3.27328498       3.01821969       2.68179333
24
Lattice="8.421587384843075 -1.5545398615872808e-11 1.2957397583934882e-14 4.210793692435003 7.293308615456884 -2.2456543184274506e-14 4.210793692425996 2.4311028718138354 15.642560592392735" Properties=species:S:1:pos:R:3 unique_starting_index=24 config_type=initial n_minim_iter=15 stress="0.0010413603903916466 2.3873393178237276e-16 1.7041281021106206e-16 2.3873393178237276e-16 0.0010413603903907194 3.9832080528779054e-16 1.7041281021106206e-16 3.9832080528779054e-16 0.00035062295458930537" pbc="T T T"
Si       9.38749915       4.26975665      16.75347516
Si       8.45170663       5.99493441      16.75347516
Si       7.42555512       4.32192544      16.75347516
Si       9.78280600       5.15480971      11.25530975
Si       7.48757477       5.89475366      11.25530975
Si       7.99438013       3.53705313      11.25530975
Si      10.08167234       3.93241434       2.71758654
Si       8.39676704       6.76477719       2.71758654
Si       6.78632151       3.88942498       2.71758654
Si       9.38234090       5.43905944       3.61565452
Si       7.44163983       5.40581584       3.61565452
Si       8.44078017       3.74174122       3.61565452
Si      10.68323767       7.11653524      12.13105049
Si       5.33845479       5.69368759      12.13105049
Si       9.24306844       1.77639367      12.13105049
Si      10.91917737       3.58359019      12.52478253
Si       8.28010510       7.66448990      12.52478253
Si       6.06547842       3.33853642      12.52478253
Si       9.57586514       8.95666798      11.11045500
Si       4.29853936       3.81460849      11.11045500
Si      11.39035640       1.81534004      11.11045500
Si       4.18662985       1.31688023       2.69720303
Si       5.18781989       2.96728769       2.69720303
Si       3.25793008       3.00913997       2.69720303
24
Lattice="8.394538841971064 -1.565864261531391e-11 1.2074887772345203e-14 4.197269420999096 7.269883890194312 -2.300825599451425e-14 4.197269420990025 2.423294630059605 15.731632840800945" Properties=species:S:1:pos:R:3 unique_starting_index=24 config_type=initial n_minim_iter=16 stress="7.141131649193764e-05 9.318357610883399e-16 -1.0341202895920176e-16 9.318357610883399e-16 7.141131649120308e-05 4.2355711022477645e-16 -1.0341202895920176e-16 4.2355711022477645e-16 -1.3900019041581496e-08" pbc="T T T"
Si       9.36284810       4.27175325      16.85461118
Si       8.40820596       5.97258768      16.85461118
Si       7.41256121       4.29542612      16.85461118
Si       9.73002517       5.20813038      11.35207253
Si       7.41369105       5.82238378      11.35207253
Si       8.03989906       3.50925289      11.35207253
Si      10.03790186       3.92164805       2.72299189
Si       8.37387908       6.73225399       2.72299189
Si       6.77183432       3.88586502       2.72299189
Si       9.36113338       5.41910319       3.65168157
Si       7.41542913       5.39742772       3.65168157
Si       8.40705276       3.72323615       3.65168157
Si      10.66392922       7.15226784      12.22585116
Si       5.26306660       5.65909969      12.22585116
Si       9.25661946       1.72839953      12.22585116
Si      10.88251754       3.59755629      12.54075303
Si       8.23224294       7.62575851      12.54075303
Si       6.06885479       3.31645227      12.54075303
Si       9.55116233       8.90203624      11.15910943
Si       4.30410616       3.82053109      11.15910943
Si      11.32834679       1.81719973      11.15910943
Si       4.17333786       1.30706182       2.71301718
Si       5.17592034       2.96068570       2.71301718
Si       3.24254881       3.00213565       2.71301718
24
Lattice="8.38159732824987 -1.5635548404717662e-11 1.2030985617380306e-14 4.190798664138479 7.258676210548345 -2.3460260259226676e-14 4.1907986641294235 2.4195587368442895 15.794650184787367" Properties=species:S:1:pos:R:3 unique_starting_index=24 config_type=initial n_minim_iter=17 stress="-0.0021315030609790975 2.2718929663834823e-15 -1.2034265221298185e-15 2.2718929663834823e-15 -0.0021315030609812585 9.203858494432677e-17 -1.2034265221298185e-15 9.203858494432677e-17 0.0001623610294853445" pbc="T T T"
Si       9.35469366       4.28591360      16.90781550
Si       8.37413694       5.95844556      16.90781550
Si       7.41596013       4.27299255      16.90781550
Si       9.67734574       5.20766757      11.43728638
Si       7.41454854       5.77699347      11.43728638
Si       8.05289645       3.53269066      11.43728638
Si      10.01278397       3.90551349       2.74552202
Si       8.37452794       6.71856853       2.74552202
Si       6.75747883       3.89326967       2.74552202
Si       9.35763915       5.40170765       3.68446993
Si       7.40635820       5.40309940       3.68446993
Si       8.38079338       3.71254465       3.68446993
Si      10.66512804       7.17574018      12.26484876
Si       5.21625652       5.64840173      12.26484876
Si       9.26340618       1.69320980      12.26484876
Si      10.84421569       3.61584340      12.55044658
Si       8.20967373       7.58344458      12.55044658
Si       6.09090130       3.31806372      12.55044658
Si       9.55062530       8.90571720      11.21138040
Si       4.27530384       3.81822553      11.21138040
Si      11.31886160       1.79340897      11.21138040
Si       4.18604463       1.30219164       2.71162141
Si       5.16084313       2.97412518       2.71162141
Si       3.22550697       2.98235867       2.71162141
24
Lattice="8.388875485124228 -1.5735013186573003e-11 1.1700951191487015e-14 4.1944377425757455 7.264979279294217 -2.3669715991383846e-14 4.194437742566632 2.421659759759547 15.82946261531024" Properties=species:S:1:pos:R:3 unique_starting_index=24 config_type=initial n_minim_iter=18 stress="-0.0009840592669132539 2.2882827383907743e-15 -7.957317941361401e-16 2.2882827383907743e-15 -0.0009840592669157757 2.930481279240071e-16 -7.957317941361401e-16 2.930481279240071e-16 -0.0007886288783934656" pbc="T T T"
Si       9.36242379       4.28572729      16.95088981
Si       8.38498953       5.96523320      16.95088981
Si       7.41921188       4.27899734      16.95088981
Si       9.68862971       5.24797226      11.47714719
Si       7.38855798       5.76661332      11.47714719
Si       8.08943751       3.51537225      11.47714719
Si      10.02453682       3.90551420       2.75908864
Si       8.38320721       6.72874645       2.75908864
Si       6.75888116       3.89569719       2.75908864
Si       9.36392080       5.40681762       3.68653160
Si       7.41334832       5.40598448       3.68653160
Si       8.38935608       3.71715573       3.68653160
Si      10.68567129       7.20600709      12.32065675
Si       5.19432929       5.65105925      12.32065675
Si       9.28662462       1.67289150      12.32065675
Si      10.86000119       3.63700770      12.55078364
Si       8.19800847       7.58653307      12.55078364
Si       6.10861554       3.30641707      12.55078364
Si       9.54886686       8.92000095      11.21330372
Si       4.27836928       3.80956081      11.21330372
Si      11.33938906       1.80039608      11.21330372
Si       4.19469818       1.30610168       2.71701790
Si       5.16040832       2.97966435       2.71701790
Si       3.22820547       2.97921253       2.71701790
24
Lattice="8.393783538633874 -1.570640180787726e-11 1.1331225757491093e-14 4.196891769330547 7.269229778316719 -2.4032262080369256e-14 4.1968917693214465 2.423076592767056 15.925882354625319" Properties=species:S:1:pos:R:3 unique_starting_index=24 config_type=initial n_minim_iter=19 stress="0.0011933013509167587 2.366826736654848e-15 -8.831327943453278e-16 2.366826736654848e-15 0.0011933013509146308 2.0657321232588367e-16 -8.831327943453278e-16 2.0657321232588367e-16 -0.0009541513826950924" pbc="T T T"
Si       9.37238162       4.28463153      17.05429202
Si       8.39077568       5.97440482      17.05429202
Si       7.41819206       4.27942249      17.05429202
Si       9.68222869       5.23017095      11.54752806
Si       7.41699099       5.76997053      11.54752806
Si       8.08212969       3.53831735      11.54752806
Si      10.02921900       3.90133240       2.78566579
Si       8.39430378       6.73489223       2.78566579
Si       6.75782659       3.90223420       2.78566579
Si       9.36635798       5.40869382       3.71175470
Si       7.42032100       5.40715704       3.71175470
Si       8.39467038       3.72260797       3.71175470
Si      10.69035257       7.20583272      12.38334572
Si       5.20195576       5.65520054      12.38334572
Si       9.28904103       1.67742557      12.38334572
Si      10.85839193       3.62933895      12.63628532
Si       8.21527055       7.58897378      12.63628532
Si       6.10768689       3.32014610      12.63628532
Si       9.55879682       8.94272552      11.28657264
Si       4.26354035       3.80679812      11.28657264
Si      11.35901219       1.78893520      11.28657264
Si       4.20675146       1.30892425       2.71874354
Si       5.15684532       2.98869151       2.71874354
Si       3.22707727       2.97161329       2.71874354
24
Lattice="8.372311625021693 -1.5790010277411323e-11 1.0849826505870628e-14 4.18615581252453 7.250634555660666 -2.4431693431173178e-14 4.186155812515381 2.4168781852150105 16.23266270034219" Properties=species:S:1:pos:R:3 unique_starting_index=24 config_type=initial n_minim_iter=20 stress="-0.00044656208686210075 2.7398508277153862e-15 -6.811320083458084e-16 2.7398508277153862e-15 -0.00044656208686438207 8.621888501970554e-17 -6.811320083458084e-16 8.621888501970554e-17 -0.0003948346378991352" pbc="T T T"
Si       9.35215639       4.28000279      17.39423837
Si       8.36195308       5.95920362      17.39423837
Si       7.40282416       4.26206198      17.39423837
Si       9.64595554       5.27097784      11.79686132
Si       7.35684393       5.71815363      11.79686132
Si       8.11413415       3.51213692      11.79686132
Si       9.99825184       3.88805457       2.85028938
Si       8.37834247       6.71471280       2.85028938
Si       6.74033931       3.89850102       2.85028938
Si       9.34624292       5.39391480       3.78651378
Si       7.40023371       5.39712640       3.78651378
Si       8.37045699       3.71022719       3.78651378
Si      10.66945259       7.23162094      12.64714366
Si       5.14712868       5.62420652      12.64714366
Si       9.30035235       1.64544094      12.64714366
Si      10.82732063       3.62419484      12.84241300
Si       8.19231730       7.56463730      12.84241300
Si       6.09729569       3.31243625      12.84241300
Si       9.53190453       8.92058053      11.47881877
Si       4.25322080       3.79458121      11.47881877
Si      11.33180830       1.78610666      11.47881877
Si       4.19939864       1.30427222       2.75576408
Si       5.14307859       2.98464980       2.75576408
Si       3.21598895       2.96171182       2.75576408
24
Lattice="8.34825611161602 -1.5845383668313425e-11 1.0674243001184577e-14 4.174128055821744 7.22980186995025 -2.5871360729697665e-14 4.17412805581256 2.409933956644851 16.70890309405231" Properties=species:S:1:pos:R:3 unique_starting_index=24 config_type=initial n_minim_iter=21 stress="-0.0008159242862705456 3.850439198713635e-15 -9.565549576173025e-16 3.850439198713635e-15 -0.0008159242862721105 4.955613006921726e-16 -9.565549576173025e-16 4.955613006921726e-16 0.000751637530371533" pbc="T T T"
Si       9.32726986       4.26989633      17.92197873
Si       8.33503777       5.94270448      17.92197873
Si       7.38245946       4.24700221      17.92197873
Si       9.61227117       5.27709067      12.15796399
Si       7.32028123       5.68592568      12.15796399
Si       8.11221469       3.49658667      12.15796399
Si       9.96529421       3.87651013       2.95004709
Si       8.35670804       6.69194288       2.95004709
Si       6.72276484       3.89115002       2.95004709
Si       9.32467940       5.37763706       3.89929532
Si       7.37700139       5.38659072       3.89929532
Si       8.34308630       3.69537525       3.89929532
Si      10.62595030       7.25259609      13.03848967
Si       5.10260378       5.57604485      13.03848967
Si       9.31621301       1.63096208      13.03848967
Si      10.78886256       3.58958312      13.19437441
Si       8.19340994       7.54863750      13.19437441
Si       6.06249459       3.32138240      13.19437441
Si       9.51536315       8.90801096      11.79619866
Si       4.22426602       3.78654074      11.79619866
Si      11.30513791       1.76505132      11.79619866
Si       4.18148378       1.29880192       2.81027073
Si       5.13271794       2.97187022       2.81027073
Si       3.20818121       2.95912902       2.81027073
