20
Lattice="7.149649525865458 -1.9758277831096102e-48 3.1528274999517764e-32 1.6870696443563775e-48 7.149649525865456 6.548152380231444e-17 -2.7503442545396034e-32 -5.712229190177655e-17 6.236940490951891" Properties=species:S:1:pos:R:3 unique_starting_index=96 config_type=initial n_minim_iter=1 energy=-3252.2256028399443 free_energy=-3252.2256028399443 pbc="T T T"
Si       5.64933042       4.34363474       1.42742476
Si       1.49908748       2.80618770       1.42742476
Si       4.34293247       1.49978976       4.54589501
Si       2.80548543       5.65003269       4.54589501
Si       5.07391225       0.76880998       1.42742476
Si       2.07450565       6.38101246       1.42742476
Si       6.38031019       5.07461452       4.54589501
Si       0.76810771       2.07520792       4.54589501
Si       2.41421774       0.76705887       5.86192352
Si       4.73420016       6.38276358       5.86192352
Si       0.76635660       4.73490243       2.74345327
Si       6.38206130       2.41492001       2.74345327
Si       1.15937539       4.34188363       5.86192352
Si       5.98904251       2.80793881       5.86192352
Si       2.80723654       1.16007767       2.74345327
Si       4.34118136       5.98974478       2.74345327
Si      -0.00061581       0.00008646       5.97062455
Si      -0.00061581       7.14973598       2.85215430
Si       3.57420895       3.57491122       5.97062455
Si       3.57420895       3.57491122       2.85215430
20
Lattice="7.145768066064896 -1.974755129676006e-48 3.138320621733126e-32 1.6913674012457652e-48 7.14576806606489 6.399799723164241e-17 -2.6991925285999234e-32 -5.709128088802951e-17 6.095638541932492" Properties=species:S:1:pos:R:3 unique_starting_index=96 config_type=initial n_minim_iter=2 stress="-0.011603841621969473 -9.452334137418127e-18 5.2844808329787825e-17 -9.452334137418127e-18 -0.011603841621969745 1.3166556892044459e-17 5.2844808329787825e-17 1.3166556892044459e-17 -0.00894718820609056" pbc="T T T"
Si       5.63461356       4.37179763       1.40679764
Si       1.50992355       2.77414326       1.40679764
Si       4.37109574       1.51062544       4.45461691
Si       2.77344137       5.63531545       4.45461691
Si       5.08280758       0.79891360       1.40679764
Si       2.06172952       6.34702729       1.40679764
Si       6.34632540       5.08350948       4.45461691
Si       0.79821171       2.06243141       4.45461691
Si       2.40237546       0.78362205       5.71699697
Si       4.74216165       6.36231884       5.71699697
Si       0.78292016       4.74286354       2.66917770
Si       6.36161695       2.40307735       2.66917770
Si       1.16927761       4.35650608       5.71699697
Si       5.97525950       2.78943480       5.71699697
Si       2.78873291       1.16997950       2.66917770
Si       4.35580419       5.97596139       2.66917770
Si      -0.00061548       0.00008641       5.83617364
Si      -0.00061548       7.14585448       2.78835437
Si       3.57226855       3.57297044       5.83617364
Si       3.57226855       3.57297044       2.78835437
20
Lattice="7.205036396840436 -1.991134116391536e-48 3.184116913216532e-32 1.709872536619892e-48 7.2050363968404305 6.391976228162904e-17 -2.678941529709579e-32 -5.756480660126113e-17 6.088186871610661" Properties=species:S:1:pos:R:3 unique_starting_index=96 config_type=initial n_minim_iter=3 stress="-0.0009377603541042699 -5.962929578950544e-17 5.291284179076614e-17 -5.962929578950544e-17 -0.0009377603541045397 -6.103656098618442e-17 5.291284179076614e-17 -6.103656098618442e-17 -0.0005477205306149525" pbc="T T T"
Si       5.67734752       4.41882307       1.40893911
Si       1.52644771       2.78638758       1.40893911
Si       4.41811536       1.52715542       4.45303255
Si       2.78567987       5.67805524       4.45303255
Si       5.12896590       0.81630487       1.40893911
Si       2.07482932       6.38890578       1.40893911
Si       6.38819807       5.12967362       4.45303255
Si       0.81559716       2.07553704       4.45303255
Si       2.41889048       0.79618975       5.70593882
Si       4.78490475       6.40902090       5.70593882
Si       0.79548204       4.78561246       2.66184539
Si       6.40831319       2.41959820       2.66184539
Si       1.18238655       4.39870795       5.70593882
Si       6.02140868       2.80650271       5.70593882
Si       2.80579499       1.18309426       2.66184539
Si       4.39800024       6.02211639       2.66184539
Si      -0.00062058       0.00008713       5.82945540
Si      -0.00062058       7.20512352       2.78536196
Si       3.60189761       3.60260533       5.82945540
Si       3.60189761       3.60260533       2.78536196
20
Lattice="7.207265668764328 -2.0293200445860762e-48 3.1948719518562945e-32 2.0103512597681758e-48 7.2072656687643235 -1.1694242864611023e-17 -2.6728657232381444e-32 -1.2359444547074507e-16 6.093705752572714" Properties=species:S:1:pos:R:3 unique_starting_index=96 config_type=initial n_minim_iter=4 stress="0.00021011190712323123 -8.43534343312976e-17 -3.921384642844038e-18 -8.43534343312976e-17 0.00021011190712305164 -1.229451885384533e-17 -3.921384642844038e-18 -1.229451885384533e-17 9.51690961917027e-05" pbc="T T T"
Si       5.68009864       4.41789580       1.40873888
Si       1.52592548       2.78954418       1.40873888
Si       4.41718787       1.52663341       4.45559176
Si       2.78883624       5.68080657       4.45559176
Si       5.12955831       0.81426297       1.40873888
Si       2.07646580       6.39317701       1.40873888
Si       6.39246908       5.13026624       4.45559176
Si       0.81355504       2.07717373       4.45559176
Si       2.42168271       0.79575571       5.71241726
Si       4.78434140       6.41168427       5.71241726
Si       0.79504778       4.78504933       2.66556438
Si       6.41097634       2.42239064       2.66556438
Si       1.18070857       4.39938854       5.71241726
Si       6.02531555       2.80805144       5.71241726
Si       2.80734351       1.18141650       2.66556438
Si       4.39868061       6.02602348       2.66556438
Si      -0.00062078       0.00008716       5.83508247
Si      -0.00062078       7.20735282       2.78822959
Si       3.60301206       3.60371999       5.83508247
Si       3.60301206       3.60371999       2.78822959
20
Lattice="7.204657089874988 -2.0604748752922095e-48 3.2089661298434975e-32 2.2920907493950943e-48 7.204657089874986 -8.198195676607462e-17 -2.6641506468645626e-32 -1.8485820204309008e-16 6.1039277309786195" Properties=species:S:1:pos:R:3 unique_starting_index=96 config_type=initial n_minim_iter=5 stress="0.0027992242226109586 -2.1331097006920195e-17 2.1655031859957434e-17 -2.1331097006920195e-17 0.0027992242226109586 -5.890712954379697e-17 2.1655031859957434e-17 -5.890712954379697e-17 0.0011608106790063227" pbc="T T T"
Si       5.67956400       4.41459372       1.40388333
Si       1.52385199       2.79023761       1.40388333
Si       4.41388605       1.52455966       4.45584719
Si       2.78952994       5.68027168       4.45584719
Si       5.12618053       0.81226518       1.40388333
Si       2.07723546       6.39256616       1.40388333
Si       6.39185848       5.12688821       4.45584719
Si       0.81155750       2.07794313       4.45584719
Si       2.43419559       0.80120853       5.72706683
Si       4.76922040       6.40362280       5.72706683
Si       0.80050086       4.76992808       2.67510297
Si       6.40291513       2.43490326       2.67510297
Si       1.16689186       4.40353708       5.72706683
Si       6.03652413       2.80129426       5.72706683
Si       2.80058658       1.16759953       2.67510297
Si       4.40282940       6.03723181       2.67510297
Si      -0.00062055       0.00008712       5.84917354
Si      -0.00062055       7.20474421       2.79720968
Si       3.60170799       3.60241567       5.84917354
Si       3.60170799       3.60241567       2.79720968
20
Lattice="6.931011274441501 -1.3103305995197889e-48 3.121811382539492e-32 2.4317935916987693e-48 6.931011274441505 1.959163248532658e-17 -2.705717670706885e-32 -8.99251957094029e-17 6.257227306306915" Properties=species:S:1:pos:R:3 unique_starting_index=96 config_type=initial n_minim_iter=6 stress="-0.013606769289248899 9.487612236517608e-18 1.9175262898087842e-16 9.487612236517608e-18 -0.013606769289248803 -2.4451201613388638e-17 1.9175262898087842e-16 -2.4451201613388638e-17 -0.019997750901070095" pbc="T T T"
Si       5.43970411       4.33705256       1.32755833
Si       1.49011320       2.59412634       1.32755833
Si       4.33637176       1.49079400       4.45617198
Si       2.59344555       5.44038490       4.45617198
Si       4.95561884       0.87154692       1.32755833
Si       1.97419847       6.05963198       1.32755833
Si       6.05895119       4.95629964       4.45617198
Si       0.87086613       1.97487927       4.45617198
Si       2.54979683       0.95229658       5.93510102
Si       4.38002048       5.97888232       5.93510102
Si       0.95161579       4.38070127       2.80648736
Si       5.97820152       2.55047763       2.80648736
Si       0.91451484       4.41780222       5.93510102
Si       6.01530247       2.51337668       5.93510102
Si       2.51269589       0.91519564       2.80648736
Si       4.41712143       6.01598327       2.80648736
Si      -0.00059698       0.00008381       6.09084293
Si      -0.00059698       6.93109509       2.96222927
Si       3.46490866       3.46558945       6.09084293
Si       3.46490866       3.46558945       2.96222927
20
Lattice="6.890353075030574 -1.2521753236949906e-49 3.118215711394507e-32 3.3498681417527275e-48 6.890353075030576 7.401179818034603e-17 -2.7185393434565204e-32 -4.213804228844184e-17 6.312907123928877" Properties=species:S:1:pos:R:3 unique_starting_index=96 config_type=initial n_minim_iter=7 stress="-0.01694512059344995 -2.8568869400283487e-17 1.6202269270979588e-16 -2.8568869400283487e-17 -0.01694512059345033 -8.296442756292195e-18 1.6202269270979588e-16 -8.296442756292195e-18 -0.0228300290674691" pbc="T T T"
Si       5.40374937       4.32457228       1.32300168
Si       1.48541675       2.56594744       1.32300168
Si       4.32389548       1.48609355       4.47945524
Si       2.56527064       5.40442617       4.47945524
Si       4.93059328       0.87939574       1.32300168
Si       1.95857283       6.01112398       1.32300168
Si       6.01044717       4.93127009       4.47945524
Si       0.87871894       1.95924964       4.47945524
Si       2.56256481       0.97183636       5.99765604
Si       4.32660131       5.91868336       5.99765604
Si       0.97115956       4.32727811       2.84120248
Si       5.91800656       2.56324161       2.84120248
Si       0.88142477       4.41701289       5.99765604
Si       6.00774135       2.47350683       5.99765604
Si       2.47283002       0.88210157       2.84120248
Si       4.41633609       6.00841815       2.84120248
Si      -0.00059348       0.00008332       6.15829869
Si      -0.00059348       6.89043640       3.00184513
Si       3.44458306       3.44525986       6.15829869
Si       3.44458306       3.44525986       3.00184513
20
Lattice="6.839639438361124 -7.001193983656686e-50 3.1868962474706945e-32 3.069661200364227e-48 6.839639438361125 1.4268055509638e-16 -2.755653319689649e-32 1.5481833445062274e-17 6.570541751061053" Properties=species:S:1:pos:R:3 unique_starting_index=96 config_type=initial n_minim_iter=8 stress="-0.0058859399332691735 -7.034287284336349e-17 2.3145297901964005e-16 -7.034287284336349e-17 -0.005885939933270098 4.296001004016121e-17 2.3145297901964005e-16 4.296001004016121e-17 -0.008354364571421522" pbc="T T T"
Si       5.35571058       4.30807463       1.36181360
Si       1.48275064       2.53173022       1.36181360
Si       4.30740281       1.48342246       4.64708447
Si       2.53105840       5.35638240       4.64708447
Si       4.90257035       0.88825491       1.36181360
Si       1.93589086       5.95154994       1.36181360
Si       5.95087812       4.90324218       4.64708447
Si       0.88758309       1.93656268       4.64708447
Si       2.55709202       0.98442642       6.25261527
Si       4.28136919       5.85537843       6.25261527
Si       0.98375460       4.28204101       2.96734440
Si       5.85470661       2.55776384       2.96734440
Si       0.86154947       4.40424614       6.25261527
Si       5.97691174       2.43555871       6.25261527
Si       2.43488689       0.86222130       2.96734440
Si       4.40357432       5.97758356       2.96734440
Si      -0.00058911       0.00008271       6.41960474
Si      -0.00058911       6.83972215       3.13433387
Si       3.41923061       3.41990243       6.41960474
Si       3.41923061       3.41990243       3.13433387
20
Lattice="6.832251844027291 -8.170760244981237e-49 3.326363675652152e-32 3.670063632862345e-48 6.832251844027294 -1.4384674544844635e-16 -2.7001764070578927e-32 -2.3649956221078266e-16 6.7202944103618805" Properties=species:S:1:pos:R:3 unique_starting_index=96 config_type=initial n_minim_iter=9 stress="0.004583616881028072 -2.6322138864240083e-17 1.402923954189366e-16 -2.6322138864240083e-17 0.004583616881027529 -3.8816871128877105e-17 1.402923954189366e-16 -3.8816871128877105e-17 0.003510423480412042" pbc="T T T"
Si       5.34279621       4.30417781       1.39895119
Si       1.48827869       2.52823927       1.39895119
Si       4.30350672       1.48894978       4.75909839
Si       2.52756818       5.34346730       4.75909839
Si       4.90440461       0.88805189       1.39895119
Si       1.92667028       5.94436520       1.39895119
Si       5.94369410       4.90507570       4.75909839
Si       0.88738079       1.92734138       4.75909839
Si       2.52803367       0.96854055       6.39295342
Si       4.30304122       5.86387654       6.39295342
Si       0.96786945       4.30371232       3.03280622
Si       5.86320544       2.52870477       3.03280622
Si       0.88691530       4.38466647       6.39295342
Si       5.94415959       2.44775061       6.39295342
Si       2.44707952       0.88758640       3.03280622
Si       4.38399538       5.94483069       3.03280622
Si      -0.00058848       0.00008262       6.55805472
Si      -0.00058848       6.83233446       3.19790751
Si       3.41553745       3.41620854       6.55805472
Si       3.41553745       3.41620854       3.19790751
20
Lattice="6.744497004477466 -2.2996729771997846e-48 3.699070451941804e-32 4.699541468004201e-48 6.744497004477466 -7.066599677917583e-16 -2.4593681022088297e-32 -7.140387129368227e-16 6.955990849696808" Properties=species:S:1:pos:R:3 unique_starting_index=96 config_type=initial n_minim_iter=10 stress="0.004036289045379942 -8.499940414281289e-17 2.0725342696876464e-16 -8.499940414281289e-17 0.004036289045379313 -2.466574278123334e-16 2.0725342696876464e-16 -2.466574278123334e-16 0.009064870080082117" pbc="T T T"
Si       5.24940075       4.26129702       1.43540807
Si       1.49393442       2.48336310       1.43540807
Si       4.26063455       1.49459689       4.91340350
Si       2.48270062       5.25006323       4.91340350
Si       4.86618292       0.88904852       1.43540807
Si       1.87715225       5.85561160       1.43540807
Si       5.85494912       4.86684540       4.91340350
Si       0.88838605       1.87781473       4.91340350
Si       2.47483886       0.94759232       6.62949012
Si       4.26849631       5.79706780       6.62949012
Si       0.94692984       4.26915879       3.15149470
Si       5.79640533       2.47550133       3.15149470
Si       0.89624781       4.31984082       6.62949012
Si       5.84708736       2.42481930       6.62949012
Si       2.42415683       0.89691029       3.15149470
Si       4.31917835       5.84774983       3.15149470
Si      -0.00058092       0.00008156       6.78863449
Si      -0.00058092       6.74457856       3.31063906
Si       3.37166759       3.37233006       6.78863449
Si       3.37166759       3.37233006       3.31063906
20
Lattice="6.771132773443949 -3.2181505196105705e-48 3.902244655928066e-32 3.2952709125974575e-48 6.771132773443949 -6.445100497763804e-16 -2.2421528407341238e-32 -6.722281916050392e-16 6.86353545674118" Properties=species:S:1:pos:R:3 unique_starting_index=96 config_type=initial n_minim_iter=11 stress="0.0023598838301127642 -3.8720790716594236e-17 1.496457314346135e-16 -3.8720790716594236e-17 0.0023598838301118613 -1.0114347357466803e-16 1.496457314346135e-16 -1.0114347357466803e-16 0.004629058633982868" pbc="T T T"
Si       5.25747960       4.27688717       1.42359165
Si       1.51248675       2.49440937       1.42359165
Si       4.27622208       1.51315184       4.85535938
Si       2.49374428       5.25814469       4.85535938
Si       4.89805314       0.89132078       1.42359165
Si       1.87191321       5.87997575       1.42359165
Si       5.87931066       4.89871823       4.85535938
Si       0.89065569       1.87257830       4.85535938
Si       2.45688846       0.92986539       6.53907449
Si       4.31307789       5.84143114       6.53907449
Si       0.92920030       4.31374298       3.10730676
Si       5.84076605       2.45755355       3.10730676
Si       0.92751150       4.31543178       6.53907449
Si       5.84245485       2.45586476       6.53907449
Si       2.45519966       0.92817660       3.10730676
Si       4.31476669       5.84311994       3.10730676
Si      -0.00058321       0.00008188       6.68847879
Si      -0.00058321       6.77121465       3.25671106
Si       3.38498318       3.38564827       6.68847879
Si       3.38498318       3.38564827       3.25671106
20
Lattice="6.776446639358254 -2.988399829330641e-48 4.0340116866796416e-32 2.75618823902434e-48 6.776446639358256 -5.207234587519531e-16 -2.083916715064065e-32 -5.715297859421692e-16 6.7809212068479" Properties=species:S:1:pos:R:3 unique_starting_index=96 config_type=initial n_minim_iter=12 stress="-0.0034180351784762948 -2.3220160774133535e-17 3.4673127025921425e-17 -2.3220160774133535e-17 -0.0034180351784769336 -2.390449992529261e-16 3.4673127025921425e-17 -2.390449992529261e-16 -0.0027845838771952537" pbc="T T T"
Si       5.24212376       4.28051375       1.39806187
Si       1.53315554       2.49609678       1.39806187
Si       4.27984814       1.53382115       4.78852247
Si       2.49543117       5.24278938       4.78852247
Si       4.92137886       0.89229043       1.39806187
Si       1.85390044       5.88432010       1.39806187
Si       5.88365448       4.92204447       4.78852247
Si       0.89162482       1.85456606       4.78852247
Si       2.45430324       0.91892286       6.46935955
Si       4.32097606       5.85768767       6.46935955
Si       0.91825725       4.32164168       3.07889895
Si       5.85702205       2.45496885       3.07889895
Si       0.93275274       4.30714618       6.46935955
Si       5.84252656       2.46946435       6.46935955
Si       2.46879873       0.93341836       3.07889895
Si       4.30648057       5.84319217       3.07889895
Si      -0.00058367       0.00008195       6.60677281
Si      -0.00058367       6.77652858       3.21631221
Si       3.38763965       3.38830526       6.60677281
Si       3.38763965       3.38830526       3.21631221
20
Lattice="6.805317438409433 -2.5951974292299936e-48 4.1903577339226154e-32 2.1080620742862763e-48 6.805317438409434 -3.469679073845757e-16 -1.9018025762161808e-32 -4.281774606637968e-16 6.6862944943996565" Properties=species:S:1:pos:R:3 unique_starting_index=96 config_type=initial n_minim_iter=13 stress="-0.007161339177297299 -1.1428208268093476e-16 1.6282564176973302e-16 -1.1428208268093476e-16 -0.007161339177297942 -1.963289654911301e-16 1.6282564176973302e-16 -1.963289654911301e-16 -0.00945173783018009" pbc="T T T"
Si       5.21764838       4.28709952       1.36614663
Si       1.58649675       2.51838250       1.36614663
Si       4.28643107       1.58716520       4.70929388
Si       2.51771405       5.21831683       4.70929388
Si       4.98915547       0.88444081       1.36614663
Si       1.81498966       5.92104122       1.36614663
Si       5.92037277       4.98982392       4.70929388
Si       0.88377236       1.81565811       4.70929388
Si       2.45855526       0.88698730       6.39643897
Si       4.34558986       5.91849473       6.39643897
Si       0.88631885       4.34625831       3.05329172
Si       5.91782628       2.45922371       3.05329172
Si       0.94293115       4.28964602       6.39643897
Si       5.86121398       2.51583601       6.39643897
Si       2.51516756       0.94359960       3.05329172
Si       4.28897757       5.86188243       3.05329172
Si      -0.00058616       0.00008229       6.50467064
Si      -0.00058616       6.80539973       3.16152340
Si       3.40207256       3.40274101       6.50467064
Si       3.40207256       3.40274101       3.16152340
20
Lattice="6.8369214007349255 -2.2425583790930256e-48 4.4142037611824096e-32 2.3637403705449962e-48 6.836921400734926 -3.453308341113783e-16 -1.775558909506694e-32 -4.2397815837280717e-16 6.791439009120148" Properties=species:S:1:pos:R:3 unique_starting_index=96 config_type=initial n_minim_iter=14 stress="0.004881584380941832 -1.8360586674677466e-17 4.696286559276705e-17 -1.8360586674677466e-17 0.004881584380941205 -2.4151981530402553e-16 4.696286559276705e-17 -2.4151981530402553e-16 -0.0004390606486843162" pbc="T T T"
Si       5.18933057       4.31469431       1.37954605
Si       1.64641307       2.52239245       1.37954605
Si       4.31402275       1.64708463       4.77526555
Si       2.52172089       5.19000213       4.77526555
Si       5.06487377       0.89623361       1.37954605
Si       1.77086987       5.94085315       1.37954605
Si       5.94018159       5.06554533       4.77526555
Si       0.89556205       1.77154143       4.77526555
Si       2.51196208       0.89749000       6.50693297
Si       4.32378157       5.93959675       6.50693297
Si       0.89681845       4.32445312       3.11121346
Si       5.93892520       2.51263363       3.11121346
Si       0.90532087       4.31595070       6.50693297
Si       5.93042278       2.52113605       6.50693297
Si       2.52046450       0.90599242       3.11121346
Si       4.31527915       5.93109433       3.11121346
Si      -0.00058888       0.00008268       6.60331142
Si      -0.00058888       6.83700408       3.20759192
Si       3.41787182       3.41854338       6.60331142
Si       3.41787182       3.41854338       3.20759192
20
Lattice="6.821706600440944 -1.92414994287235e-48 4.7544802556552723e-32 2.4588198752486358e-48 6.821706600440946 -3.456782364832958e-16 -1.591686480026281e-32 -4.1108010435951293e-16 6.984067883472147" Properties=species:S:1:pos:R:3 unique_starting_index=96 config_type=initial n_minim_iter=15 stress="0.011604933251539143 1.1955940608674137e-17 1.2552842059265952e-16 1.1955940608674137e-17 0.011604933251538444 -3.822313908043469e-16 1.2552842059265952e-16 -3.822313908043469e-16 0.008712711386492438" pbc="T T T"
Si       5.10176083       4.30484285       1.42672274
Si       1.71877063       2.51702873       1.42672274
Si       4.30417279       1.71944069       4.91875668
Si       2.51635867       5.10243089       4.91875668
Si       5.12962393       0.89398955       1.42672274
Si       1.69090753       5.92788203       1.42672274
Si       5.92721197       5.13029399       4.91875668
Si       0.89331949       1.69157759       4.91875668
Si       2.51898825       0.86967823       6.69618767
Si       4.30154322       5.95219335       6.69618767
Si       0.86900817       4.30221328       3.20415373
Si       5.95152330       2.51965831       3.20415373
Si       0.89068992       4.28053153       6.69618767
Si       5.92984155       2.54134005       6.69618767
Si       2.54067000       0.89135998       3.20415373
Si       4.27986147       5.93051161       3.20415373
Si      -0.00058757       0.00008249       6.76511760
Si      -0.00058757       6.82178909       3.27308366
Si       3.41026573       3.41093579       6.76511760
Si       3.41026573       3.41093579       3.27308366
20
Lattice="6.756888866629904 -2.1265033159309584e-48 5.123075450500744e-32 2.875271740169762e-48 6.756888866629907 -4.801057933687928e-16 -1.3299124618107594e-32 -5.195522018552099e-16 7.097294631790842" Properties=species:S:1:pos:R:3 unique_starting_index=96 config_type=initial n_minim_iter=16 stress="0.004614292094187604 1.333682536728318e-16 5.76073268175045e-17 1.333682536728318e-16 0.004614292094186814 -3.746315543990226e-16 5.76073268175045e-17 -3.746315543990226e-16 0.004187821742958657" pbc="T T T"
Si       4.99457393       4.28055486       1.47973993
Si       1.76115097       2.47649742       1.47973993
Si       4.27989117       1.76181466       5.02838725
Si       2.47583373       4.99523762       5.02838725
Si       5.13959540       0.90211043       1.47973993
Si       1.61612950       5.85494186       1.47973993
Si       5.85427816       5.14025910       5.02838725
Si       0.90144674       1.61679319       5.02838725
Si       2.50600908       0.85540500       6.79081467
Si       4.24971582       5.90164728       6.79081467
Si       0.85474131       4.25037951       3.24216735
Si       5.90098359       2.50667277       3.24216735
Si       0.87127138       4.23384943       6.79081467
Si       5.88445351       2.52320285       6.79081467
Si       2.52253916       0.87193508       3.24216735
Si       4.23318574       5.88511721       3.24216735
Si      -0.00058198       0.00008171       6.84288598
Si      -0.00058198       6.75697058       3.29423866
Si       3.37786245       3.37852614       6.84288598
Si       3.37786245       3.37852614       3.29423866
20
Lattice="6.724121907659146 -2.5552351982170375e-48 5.29870420659427e-32 3.132892888672662e-48 6.72412190765915 -6.125849299120545e-16 -1.1637954806752204e-32 -6.327056889363193e-16 7.085799710752952" Properties=species:S:1:pos:R:3 unique_starting_index=96 config_type=initial n_minim_iter=17 stress="-0.00049239710824151 1.755212285740498e-16 4.999017389990138e-17 1.755212285740498e-16 -0.000492397108242131 -3.3574452520377567e-16 4.999017389990138e-17 -3.3574452520377567e-16 -0.00013253044147768962" pbc="T T T"
Si       4.99343122       4.26926287       1.48085462
Si       1.72953236       2.45502167       1.48085462
Si       4.26860239       1.73019284       5.02375448
Si       2.45436119       4.99409170       5.02375448
Si       5.09159332       0.90720191       1.48085462
Si       1.63137027       5.81708262       1.48085462
Si       5.81642214       5.09225379       5.02375448
Si       0.90654144       1.63203074       5.02375448
Si       2.50907257       0.87512782       6.77299306
Si       4.21389102       5.84915672       6.77299306
Si       0.87446734       4.21455149       3.23009320
Si       5.84849624       2.50973304       3.23009320
Si       0.85183007       4.23718877       6.77299306
Si       5.87113352       2.48709576       6.77299306
Si       2.48643529       0.85249054       3.23009320
Si       4.23652830       5.87179399       3.23009320
Si      -0.00057916       0.00008131       6.83842662
Si      -0.00057916       6.72420322       3.29552677
Si       3.36148179       3.36214227       6.83842662
Si       3.36148179       3.36214227       3.29552677
20
Lattice="6.725138866385435 -1.2683806143010927e-48 5.463118151824364e-32 2.3428862531240944e-48 6.725138866385436 -3.310751634982237e-16 -1.0194744063791735e-32 -3.8744438863574226e-16 7.0842771569473415" Properties=species:S:1:pos:R:3 unique_starting_index=96 config_type=initial n_minim_iter=18 stress="-0.0006768329229004249 1.3747670313513168e-16 4.492287632856404e-17 1.3747670313513168e-16 -0.0006768329229011345 -3.275138826865324e-16 4.492287632856404e-17 -3.275138826865324e-16 -0.0004902768546052722" pbc="T T T"
Si       4.98879085       4.27176893       1.47982653
Si       1.73518952       2.45353259       1.47982653
Si       4.27110835       1.73585010       5.02196511
Si       2.45287201       4.98945142       5.02196511
Si       5.09775895       0.90919950       1.47982653
Si       1.62622141       5.81610202       1.47982653
Si       5.81544145       5.09841953       5.02196511
Si       0.90853892       1.62688199       5.02196511
Si       2.51483917       0.87486422       6.77306344
Si       4.20914120       5.85043729       6.77306344
Si       0.87420365       4.20980178       3.23092486
Si       5.84977672       2.51549974       3.23092486
Si       0.84657177       4.23743366       6.77306344
Si       5.87740860       2.48786786       6.77306344
Si       2.48720728       0.84723234       3.23092486
Si       4.23677308       5.87806917       3.23092486
Si      -0.00057925       0.00008132       6.83532556
Si      -0.00057925       6.72522019       3.29318698
Si       3.36199018       3.36265076       6.83532556
Si       3.36199018       3.36265076       3.29318698
20
Lattice="6.734917860636809 -2.1988365971889253e-48 5.683953970836987e-32 3.0078100182009026e-48 6.734917860636811 -5.783521117823003e-16 -8.203868208023749e-33 -6.045843685510694e-16 7.073507115406582" Properties=species:S:1:pos:R:3 unique_starting_index=96 config_type=initial n_minim_iter=19 stress="0.0002950854023023009 1.2530526995060222e-16 7.703588262229038e-17 1.2530526995060222e-16 0.000295085402301858 -4.164754352182203e-16 7.703588262229038e-17 -4.164754352182203e-16 -0.00030850107075944256" pbc="T T T"
Si       4.98920703       4.28714717       1.48197082
Si       1.74455065       2.44793358       1.48197082
Si       4.28648564       1.74521218       5.01872438
Si       2.44727204       4.98986857       5.01872438
Si       5.11200958       0.91968824       1.48197082
Si       1.62174810       5.81539251       1.48197082
Si       5.81473097       5.11267111       5.01872438
Si       0.91902670       1.62240964       5.01872438
Si       2.52764847       0.87104120       6.76333775
Si       4.20610921       5.86403955       6.76333775
Si       0.87037966       4.20677074       3.22658420
Si       5.86337801       2.52831001       3.22658420
Si       0.83865028       4.23850013       6.76333775
Si       5.89510740       2.49658062       6.76333775
Si       2.49591908       0.83931181       3.22658420
Si       4.23783859       5.89576894       3.22658420
Si      -0.00058009       0.00008144       6.81500349
Si      -0.00058009       6.73499930       3.27824993
Si       3.36687884       3.36754037       6.81500349
Si       3.36687884       3.36754037       3.27824993
20
Lattice="6.724137246699629 -9.165172404858415e-49 5.885138461122494e-32 2.710806224910504e-48 6.724137246699629 -3.927048730156705e-16 -6.602852078544288e-33 -4.3854660036207623e-16 7.096068854787467" Properties=species:S:1:pos:R:3 unique_starting_index=96 config_type=initial n_minim_iter=20 stress="0.0012143764910648662 1.2671347048451221e-16 1.3366493478328547e-16 1.2671347048451221e-16 0.0012143764910639804 -2.9764312911751227e-16 1.3366493478328547e-16 -2.9764312911751227e-16 0.0009353759871564201" pbc="T T T"
Si       4.99161776       4.29633398       1.48269328
Si       1.73136116       2.42796589       1.48269328
Si       4.29567351       1.73202164       5.03072771
Si       2.42730541       4.99227823       5.03072771
Si       5.09342979       0.93426536       1.48269328
Si       1.62954913       5.79003451       1.48269328
Si       5.78937404       5.09409026       5.03072771
Si       0.93360488       1.63020961       5.03072771
Si       2.51977608       0.86660454       6.79025420
Si       4.20320284       5.85769533       6.79025420
Si       0.86594407       4.20386332       3.24221977
Si       5.85703485       2.52043655       3.24221977
Si       0.84113422       4.22867317       6.79025420
Si       5.88184470       2.49562671       6.79025420
Si       2.49496623       0.84179470       3.24221977
Si       4.22801269       5.88250518       3.24221977
Si      -0.00057916       0.00008131       6.83406154
Si      -0.00057916       6.72421856       3.28602711
Si       3.36148946       3.36214994       6.83406154
Si       3.36148946       3.36214994       3.28602711
20
Lattice="6.719663653279341 -2.2111953636544713e-48 5.982850184952059e-32 2.828393430525788e-48 6.719663653279341 -5.89740367838851e-16 -5.763081652052937e-33 -6.100317279482069e-16 7.098253539763699" Properties=species:S:1:pos:R:3 unique_starting_index=96 config_type=initial n_minim_iter=21 stress="0.0004070182589872715 1.7079125302106775e-16 1.4894944134438221e-16 1.7079125302106775e-16 0.0004070182589869168 -2.9383313313915163e-16 1.4894944134438221e-16 -2.9383313313915163e-16 0.00010184044792863593" pbc="T T T"
Si       4.98557214       4.29539847       1.48365421
Si       1.73293396       2.42442770       1.48365421
Si       4.29473844       1.73359399       5.03278098
Si       2.42376766       4.98623218       5.03278098
Si       5.09276578       0.93556665       1.48365421
Si       1.62574032       5.78425952       1.48365421
Si       5.78359949       5.09342582       5.03278098
Si       0.93490661       1.62640035       5.03278098
Si       2.51315648       0.86031195       6.79370120
Si       4.20534962       5.85951422       6.79370120
Si       0.85965192       4.20600965       3.24457443
Si       5.85885418       2.51381652       3.24457443
Si       0.84551779       4.22014378       6.79370120
Si       5.87298831       2.49968239       6.79370120
Si       2.49902236       0.84617783       3.24457443
Si       4.21948374       5.87364834       3.24457443
Si      -0.00057878       0.00008126       6.83244372
Si      -0.00057878       6.71974491       3.28331695
Si       3.35925305       3.35991309       6.83244372
Si       3.35925305       3.35991309       3.28331695
