8
Lattice="2.7980899999999993 -1.3485812485137213e-47 -1.0786151380396024e-79 6.897824407155811e-32 6.191839999999999 -1.8556329809942927e-47 8.331019508568165e-95 -7.632032042786987e-32 9.54225" Properties=species:S:1:pos:R:3 unique_starting_index=54 config_type=initial n_minim_iter=1 pbc="T T T"
Si       0.68319481       0.57843612       1.24409565
Si       2.11489519       5.61340388       1.24409565
Si       0.71585019       3.67435612       6.01522065
Si       2.08223981       2.51748388       6.01522065
Si       0.75146848       5.44502732       0.35019962
Si       2.04662152       0.74681268       0.35019962
Si       0.64757652       2.34910732       5.12132462
Si       2.15051348       3.84273268       5.12132462
8
Lattice="2.8711705069451803 5.672873020060364e-34 4.537247364485578e-66 7.203515691317187e-32 6.24787695847343 -1.1335374399486006e-33 -9.464696632087734e-82 -7.875792480118133e-32 9.670575124902784" Properties=species:S:1:pos:R:3 unique_starting_index=54 config_type=initial n_minim_iter=2 pbc="T T T"
Si       0.70305188       0.58505809       1.26377633
Si       2.16811863       5.66281887       1.26377633
Si       0.73253338       3.70899657       6.09906389
Si       2.13863713       2.53888039       6.09906389
Si       0.77255764       5.49350441       0.35195918
Si       2.09861286       0.75437255       0.35195918
Si       0.66302761       2.36956593       5.18724675
Si       2.20814290       3.87831103       5.18724675
8
Lattice="46.384915192609235 -3.2833533759370566e-31 -2.622792627152933e-63 4.168736163136991e-31 12.569461944212067 -3.699176885879122e-31 -1.8872469995182186e-78 -7.252479917290577e-31 43.775244105996855" Properties=species:S:1:pos:R:3 unique_starting_index=54 config_type=initial n_minim_iter=3 pbc="T T T"
Si       9.80029657       1.29178732       7.23112639
Si      36.58461862      11.27767463       7.23112639
Si      13.39216103       7.57651829      29.11874844
Si      32.99275417       4.99294366      29.11874844
Si      10.30923851      10.92927467       0.08273194
Si      36.07567669       1.64018727       0.08273194
Si      12.88321909       4.64454370      21.97035399
Si      33.50169610       7.92491824      21.97035399
