16
Lattice="6.406277214991998 0.5872883259923314 1.5485389274687154 2.7929024142078873 4.299374721509215 0.8414236578020642 5.986283481949296 1.6887854602148225 13.916267608339119" Properties=species:S:1:pos:R:3 unique_starting_index=3 config_type=initial n_minim_iter=1 energy=-2606.2709010523063 free_energy=-2606.2709010523063 pbc="T T T"
Si       9.19871345       5.43407824       8.41321058
Si       9.31465251       2.78754736      14.76383655
Si       2.38607952       3.00826579       4.06219638
Si       6.11074927       3.20900846       2.70399521
Si       8.60223719       1.41695320       6.68055717
Si       9.64592272       3.16347850       8.99901741
Si       4.69849057       3.22347490       4.55243970
Si       8.40087392       3.44832474       3.29832350
Si       5.88213444       1.48724082       9.83791202
Si       9.28733948       0.87799840       9.23227698
Si      10.24499951       3.97105805      11.13130783
Si       4.74842886       1.16517026       5.84118898
Si       6.60755229       4.61810463      10.75850584
Si       6.64566606       2.55066608      11.81199517
Si       8.91449316       2.51941112      12.48114262
Si       5.64485641       1.31669383       1.33722256
16
Lattice="6.407903820330607 0.5891447722203225 1.5508328409338334 2.79449637623604 4.302900518443112 0.842826682924623 5.989871886424175 1.692089243356846 13.929096854197716" Properties=species:S:1:pos:R:3 unique_starting_index=3 config_type=initial n_minim_iter=2 stress="0.000511577131835184 -8.434059074752572e-05 -1.866901166783848e-06 -8.434059074752572e-05 0.0004699347199886232 2.8614683926241562e-05 -1.866901166783848e-06 2.8614683926241562e-05 0.0006301930800910742" pbc="T T T"
Si       9.20319478       5.44016445       8.42205579
Si       9.31921685       2.79243457      14.77812161
Si       2.38787774       3.01106893       4.06632819
Si       6.11297298       3.21254347       2.70725919
Si       8.60510870       1.42001611       6.68766813
Si       9.64951180       3.16852547       9.00835709
Si       4.70070035       3.22663836       4.55743925
Si       8.40373081       3.45258697       3.30243085
Si       5.88490625       1.48999736       9.84720723
Si       9.29076625       0.88108136       9.24113175
Si      10.24949328       3.97667791      11.14251568
Si       4.75043752       1.16719745       5.84689487
Si       6.61176660       4.62332961      10.76904436
Si       6.64926408       2.55474884      11.82327610
Si       8.91875321       2.52411123      12.49296987
Si       5.64648059       1.31882545       1.33947256
16
Lattice="6.39883555667312 0.5967336076158883 1.5544451209509726 2.7952473680430536 4.307069775239903 0.8448158559878901 5.989273455760376 1.7006376821323463 13.93401341626847" Properties=species:S:1:pos:R:3 unique_starting_index=3 config_type=initial n_minim_iter=3 stress="-0.0012044049691853128 0.0003753067168657844 0.00044846871443740685 0.0003753067168657844 -9.526438432562265e-05 0.00014344805866929188 0.00044846871443740685 0.00014344805866929188 0.0006997811568377601" pbc="T T T"
Si       9.20047824       5.45219123       8.42836707
Si       9.31454371       2.80559770      14.78611415
Si       2.39011837       3.01488428       4.06919333
Si       6.10746759       3.21985107       2.71012078
Si       8.59526178       1.42969608       6.69358343
Si       9.63971085       3.18314283       9.01536400
Si       4.69853094       3.23108346       4.56241649
Si       8.39530399       3.46294199       3.30658998
Si       5.88101910       1.49706246       9.85134680
Si       9.28165355       0.89234961       9.24427582
Si      10.24282740       3.99068113      11.14924523
Si       4.74674380       1.17244442       5.84999386
Si       6.61420873       4.63315416      10.77498107
Si       6.64743521       2.56551990      11.82891280
Si       8.91448973       2.53828588      12.49756150
Si       5.63955518       1.32543251       1.34419217
16
Lattice="6.412426690066351 0.6035171033595189 1.5434972855932907 2.8052505285073277 4.315538312840337 0.8376189038700448 5.991346912978005 1.7025987321187075 13.886244772912715" Properties=species:S:1:pos:R:3 unique_starting_index=3 config_type=initial n_minim_iter=4 stress="0.00014511679168239313 0.0006284999661356411 5.099545128405695e-05 0.0006284999661356411 0.0001430249658792785 -0.0004663001966639861 5.099545128405695e-05 -0.0004663001966639861 -0.00025339059219803425" pbc="T T T"
Si       9.22402182       5.46414051       8.39207910
Si       9.32347418       2.81332398      14.73502207
Si       2.39626173       3.01949598       4.05571887
Si       6.12017674       3.22748649       2.69170109
Si       8.60759987       1.43398113       6.66604962
Si       9.64906318       3.19942876       8.98008819
Si       4.70694722       3.23208889       4.54821818
Si       8.41393320       3.47433588       3.28469931
Si       5.88345606       1.49813943       9.81538163
Si       9.29594893       0.89793925       9.19871668
Si      10.25915974       4.00265341      11.10336030
Si       4.75238494       1.17301545       5.82721812
Si       6.63095440       4.64191480      10.73659015
Si       6.65359771       2.57494706      11.78761318
Si       8.92854542       2.55245619      12.44598026
Si       5.65305500       1.33182795       1.33889422
16
Lattice="6.411505403993365 0.5971044080805339 1.5417590671019514 2.799692361248867 4.312828529159298 0.8412302850564604 5.984854007867741 1.7101272384956676 13.884074783113403" Properties=species:S:1:pos:R:3 unique_starting_index=3 config_type=initial n_minim_iter=5 stress="-0.00011553892341525208 -6.890927013840444e-05 -0.00017119482068028773 -6.890927013840444e-05 -0.00021565078085960293 0.00034693095520560473 -0.00017119482068028773 0.00034693095520560473 0.00011912418876225009" pbc="T T T"
Si       9.21618528       5.46145556       8.39345999
Si       9.31550210       2.81763144      14.73355896
Si       2.39164498       3.02043497       4.05840920
Si       6.11491449       3.22232631       2.69224590
Si       8.60339260       1.42922526       6.66407350
Si       9.63985110       3.19834131       8.97964868
Si       4.70139010       3.22895717       4.55098638
Si       8.40831662       3.46715161       3.28451911
Si       5.87767304       1.50087672       9.81378377
Si       9.29278944       0.89638703       9.19199188
Si      10.25124044       4.00227460      11.10233342
Si       4.74918580       1.17203610       5.82621852
Si       6.62389739       4.64559279      10.73823463
Si       6.64675842       2.58076870      11.78680934
Si       8.92268692       2.55700455      12.44240919
Si       5.65123159       1.32571588       1.33952356
16
Lattice="6.41370606960938 0.5862215505317038 1.5461422433415781 2.7943624980564956 4.314085936156462 0.8389384411729514 5.9989669593385715 1.6894547855770854 13.869558945881947" Properties=species:S:1:pos:R:3 unique_starting_index=3 config_type=initial n_minim_iter=6 stress="-0.0003532568320358938 -0.0007887050173755487 0.0004849394850076938 -0.0007887050173755487 0.0008956463513644492 -0.000524632003440439 0.0004849394850076938 -0.000524632003440439 -0.00041712538850506196" pbc="T T T"
Si       9.22049957       5.44765565       8.38567377
Si       9.33017858       2.79233226      14.72121735
Si       2.39238006       3.01551002       4.05416224
Si       6.11223796       3.21469315       2.69305912
Si       8.60952629       1.40808501       6.66330587
Si       9.63955870       3.18013655       8.97624410
Si       4.70271842       3.21743691       4.54914952
Si       8.40637101       3.45506393       3.28541543
Si       5.88687143       1.48422520       9.80649034
Si       9.30593639       0.87577305       9.18024190
Si      10.26153150       3.98347092      11.09334457
Si       4.75583989       1.15571730       5.82356460
Si       6.63195310       4.63426383      10.72605541
Si       6.65748613       2.56490141      11.77583863
Si       8.93733772       2.53811459      12.42940659
Si       5.65136502       1.31630845       1.34453448
16
Lattice="6.44600310040589 0.589981030436206 1.543705666566172 2.811166564731691 4.308054024900393 0.8390718807703937 6.030991119388715 1.6955396309061848 13.841823690277296" Properties=species:S:1:pos:R:3 unique_starting_index=3 config_type=initial n_minim_iter=7 stress="0.0019540932227141796 -0.00011400538145624713 0.0006536640473069012 -0.00011400538145624713 -0.0016865360114384506 -0.0008058533676531099 0.0006536640473069012 -0.0008058533676531099 0.0006419251342130915" pbc="T T T"
Si       9.27496089       5.45107041       8.36730756
Si       9.38254878       2.79759487      14.69466503
Si       2.40824889       3.00428553       4.05437274
Si       6.13715479       3.21452635       2.69470764
Si       8.65072904       1.40144084       6.65155141
Si       9.65737142       3.18759384       8.96630011
Si       4.73014452       3.19765647       4.55146593
Si       8.44204875       3.45200652       3.27977456
Si       5.91775722       1.49129775       9.79450745
Si       9.36465192       0.89423657       9.12656852
Si      10.32579264       3.99948413      11.06865914
Si       4.78620577       1.13707779       5.81939935
Si       6.67304343       4.64648335      10.70522921
Si       6.69515285       2.57957624      11.75491376
Si       8.99615132       2.55748641      12.39399044
Si       5.67726316       1.31326671       1.34977098
16
Lattice="6.443094922225733 0.6052743856942087 1.5185123053508787 2.814386000242516 4.336501048503968 0.8384907625193506 5.992034585947809 1.7503980896070792 13.761211626068976" Properties=species:S:1:pos:R:3 unique_starting_index=3 config_type=initial n_minim_iter=8 stress="0.00043265595346361497 0.0003896530864533978 -0.001205511931444926 0.0003896530864533978 0.0010476480643487934 -0.000415358526418002 -0.001205511931444926 -0.000415358526418002 -0.00029990424671157216" pbc="T T T"
Si       9.26027390       5.51996331       8.31076664
Si       9.34616424       2.86334122      14.60381520
Si       2.40227219       3.02444130       4.04240139
Si       6.12689136       3.24744228       2.67892079
Si       8.63071115       1.42552164       6.59776042
Si       9.60179973       3.24512569       8.91003215
Si       4.72150680       3.21440445       4.53361822
Si       8.42883003       3.48522290       3.24874720
Si       5.89235463       1.53744788       9.74080043
Si       9.35235262       0.94666567       9.02064306
Si      10.31026550       4.07793804      10.99037168
Si       4.77769407       1.14148307       5.78814534
Si       6.64904345       4.72171870      10.64317249
Si       6.66702874       2.64441166      11.68715109
Si       8.97325755       2.62894195      12.30449096
Si       5.67212711       1.32653218       1.33545992
16
Lattice="6.466642701889888 0.601101691916816 1.564431448506427 2.8158774193965277 4.3376928198779465 0.8877047477872978 6.104992904012304 1.8392232547455138 13.759359365597561" Properties=species:S:1:pos:R:3 unique_starting_index=3 config_type=initial n_minim_iter=9 stress="-0.0006994798211049688 0.0007254815513573565 0.002689758468900598 0.0007254815513573565 3.1565520882140074e-05 0.0025162584581013736 0.002689758468900598 0.0025162584581013736 -0.0015929567934525103" pbc="T T T"
Si       9.32486867       5.57225728       8.38695539
Si       9.47124421       2.94975234      14.62883277
Si       2.43523015       3.03181395       4.07172654
Si       6.14513865       3.25263245       2.74798629
Si       8.69068892       1.43732338       6.64167378
Si       9.63493677       3.29968955       8.97916282
Si       4.75365954       3.21697220       4.58493252
Si       8.45367852       3.47861345       3.32879847
Si       5.98383121       1.60768944       9.76229870
Si       9.46087806       1.00721779       9.01254785
Si      10.42691763       4.15758979      11.04181444
Si       4.84411224       1.13555901       5.81818110
Si       6.72297709       4.80299246      10.66998965
Si       6.77161588       2.72991259      11.70917583
Si       9.08473419       2.70981273      12.33293004
Si       5.68796459       1.32298319       1.38401665
16
Lattice="6.466825301626613 0.563359050465635 1.5809741874150545 2.790993399782619 4.312086453050439 0.9048899307078596 6.1263549957005505 1.8318355779467774 13.781996359587792" Properties=species:S:1:pos:R:3 unique_starting_index=3 config_type=initial n_minim_iter=10 stress="-0.003768780026067643 -2.2910785401331634e-05 0.0026189769199622013 -2.2910785401331634e-05 -0.0012928636855120913 0.0022883805852964897 0.0026189769199622013 0.0022883805852964897 7.621499447755723e-05" pbc="T T T"
Si       9.30520043       5.53683695       8.42893817
Si       9.48866675       2.92130186      14.65995282
Si       2.43508218       2.99389268       4.09576659
Si       6.12355131       3.20853247       2.78291161
Si       8.68850377       1.37048083       6.66288671
Si       9.56693071       3.27670439       9.03185474
Si       4.73452472       3.16048409       4.62600909
Si       8.42858885       3.40754439       3.36440955
Si       6.00812035       1.60722721       9.79410830
Si       9.51040909       0.98923676       8.97180522
Si      10.45782074       4.14013943      11.06568392
Si       4.87469102       1.06084572       5.84841857
Si       6.70788640       4.79943305      10.68315686
Si       6.79544930       2.73188968      11.73950778
Si       9.10326031       2.69356314      12.35677185
Si       5.67915624       1.28981701       1.40584556
16
Lattice="6.487028372692257 0.5275663391555819 1.586786839672148 2.7762011338181347 4.289031316201565 0.9150499594347739 6.151461527796424 1.820367561213952 13.773782909184922" Properties=species:S:1:pos:R:3 unique_starting_index=3 config_type=initial n_minim_iter=11 stress="-0.0036344909883969717 -0.0008683757037218458 0.001587249064878094 -0.0008683757037218458 -0.0005606324990168248 0.0018710926013784902 0.001587249064878094 0.0018710926013784902 0.0006225649427640224" pbc="T T T"
Si       9.30884928       5.50300973       8.44824973
Si       9.51677368       2.89260725      14.65558404
Si       2.44147619       2.95611466       4.10622707
Si       6.12356434       3.16169896       2.79981943
Si       8.70297582       1.30400295       6.66075125
Si       9.52080475       3.26729523       9.06135615
Si       4.72184640       3.10478252       4.65528885
Si       8.43417256       3.33697490       3.38234815
Si       6.04025917       1.60491701       9.79821477
Si       9.58318804       0.96513363       8.90813045
Si      10.50992402       4.11948693      11.05419030
Si       4.91883214       0.98466082       5.85795915
Si       6.70486302       4.79104903      10.66596828
Si       6.82867388       2.73339773      11.74157207
Si       9.13262472       2.67556979      12.35049107
Si       5.69013531       1.26233498       1.41809404
16
Lattice="6.475190817817851 0.5106994785602282 1.5783016304784483 2.766318860665014 4.262374171697001 0.8932528100607513 6.109890721081846 1.7404808462349166 13.835648152142673" Properties=species:S:1:pos:R:3 unique_starting_index=3 config_type=initial n_minim_iter=12 stress="-0.0018644980830096465 -0.0010171496112502255 -0.0007802910876203019 -0.0010171496112502255 -0.0021528274914529317 -0.0013389846693121566 -0.0007802910876203019 -0.0013389846693121566 0.002847611514680378" pbc="T T T"
Si       9.26575762       5.42664969       8.45996500
Si       9.46237770       2.80304860      14.70788721
Si       2.42572398       2.92672849       4.10161331
Si       6.11762710       3.12165001       2.78027350
Si       8.67253569       1.26790000       6.67176663
Si       9.51409619       3.20505672       9.07905659
Si       4.69521004       3.08092415       4.65085163
Si       8.42556983       3.29618052       3.36886340
Si       6.01014812       1.54599921       9.82771305
Si       9.54431884       0.89758063       8.97290123
Si      10.45932771       4.02438210      11.07742304
Si       4.89987852       0.96460692       5.86702551
Si       6.66017098       4.69844357      10.68846555
Si       6.78976498       2.64973061      11.78226679
Si       9.07345703       2.58028464      12.40637354
Si       5.68243974       1.25206973       1.39886901
16
Lattice="6.505795576540994 0.530958583476825 1.5699383891238852 2.788835696242821 4.2851499173577405 0.8983644275683271 6.140628143531357 1.7934017411425607 13.753664204600756" Properties=species:S:1:pos:R:3 unique_starting_index=3 config_type=initial n_minim_iter=13 stress="0.00041086952189773164 -0.00024804413191366765 -0.0006094410220596781 -0.00024804413191366765 2.7471816266359865e-05 -0.0004018834524361998 -0.0006094410220596781 -0.0004018834524361998 0.0003930598028865106" pbc="T T T"
Si       9.32409654       5.49177969       8.42038809
Si       9.51167458       2.86900075      14.62679358
Si       2.44491927       2.94571057       4.08529304
Si       6.14941528       3.15014884       2.77373021
Si       8.70628568       1.29899363       6.63456594
Si       9.53920603       3.26929757       9.04108326
Si       4.72325065       3.09707771       4.63807139
Si       8.46893825       3.33162925       3.35474765
Si       6.03882318       1.59126106       9.77365793
Si       9.60006119       0.94889316       8.89718010
Si      10.52074065       4.09408490      11.01425706
Si       4.93235265       0.97730110       5.83320339
Si       6.70545627       4.76218339      10.63074430
Si       6.82585227       2.71173193      11.71697701
Si       9.12635131       2.64918098      12.32862954
Si       5.70935190       1.26976404       1.39799106
16
Lattice="6.545153361825897 0.5566668661930114 1.5726912379415112 2.818161252800357 4.307886713557981 0.9122792258029372 6.202644913393998 1.8632046807184257 13.675552473420236" Properties=species:S:1:pos:R:3 unique_starting_index=3 config_type=initial n_minim_iter=14 stress="0.0019326539185011123 0.001022402488251048 0.0006684370835931963 0.001022402488251048 0.0023029876653695 0.0009049969804792578 0.0006684370835931963 0.0009049969804792578 -0.0027084757618008747" pbc="T T T"
Si       9.40657875       5.58296142       8.39794833
Si       9.59993281       2.95066938      14.55958767
Si       2.47550624       2.96003959       4.06718283
Si       6.19715707       3.17856472       2.78819995
Si       8.74206157       1.33703721       6.60963891
Si       9.56992058       3.35433503       9.03623577
Si       4.76655843       3.10548870       4.63608509
Si       8.53130941       3.37262911       3.35593147
Si       6.09022185       1.65959633       9.72889894
Si       9.69872543       1.02319853       8.82969099
Si      10.61755140       4.17810024      10.96260472
Si       4.99907442       0.98585285       5.79920548
Si       6.77648599       4.84492384      10.57289133
Si       6.88802520       2.79371853      11.65792549
Si       9.21194181       2.73465514      12.26209971
Si       5.74058832       1.28878111       1.40464222
16
Lattice="6.530863896646136 0.5445898543285879 1.5715192505680506 2.8078417681180383 4.286535698053214 0.9031285759704857 6.173925692797607 1.8183554908798465 13.732429786134553" Properties=species:S:1:pos:R:3 unique_starting_index=3 config_type=initial n_minim_iter=15 stress="0.00033608244125700427 0.00035225183721835886 -0.0002531881820409979 0.00035225183721835886 0.0005337933434579016 -0.00022484262075462007 -0.0002531881820409979 -0.00022484262075462007 -0.0005535255825556541" pbc="T T T"
Si       9.36879930       5.54789752       8.41419180
Si       9.56624441       2.88933517      14.61890143
Si       2.46197663       2.93513701       4.06318545
Si       6.19048886       3.14860897       2.79405673
Si       8.69803787       1.31482664       6.63173149
Si       9.54285535       3.30918345       9.07806384
Si       4.75449481       3.07679787       4.63764391
Si       8.51936525       3.35077347       3.34826076
Si       6.05897909       1.63261671       9.76462635
Si       9.67890445       0.99299737       8.88824170
Si      10.57356852       4.11134278      10.99716549
Si       4.99716747       0.97553979       5.80594468
Si       6.74834788       4.79324774      10.59898767
Si       6.85085179       2.74561162      11.69766792
Si       9.17326787       2.67706160      12.31190054
Si       5.72457999       1.27157824       1.39407273
16
Lattice="6.536982056165668 0.5278758186008244 1.5803804759751048 2.8007389815100554 4.2691040636987285 0.9085681420700491 6.190342763530183 1.8041523674975317 13.754956067276469" Properties=species:S:1:pos:R:3 unique_starting_index=3 config_type=initial n_minim_iter=16 stress="-0.0002761243592655812 -0.00021060952687415116 -6.023519260315313e-07 -0.00021060952687415116 -0.0002044086143997851 2.076661236001543e-06 -6.023519260315313e-07 2.076661236001543e-06 0.00042581765802839793" pbc="T T T"
Si       9.36761719       5.52472116       8.43827606
Si       9.58461780       2.86162802      14.64652289
Si       2.46660413       2.91170358       4.07061107
Si       6.19239584       3.12149886       2.81106057
Si       8.70065133       1.28436231       6.64848508
Si       9.52440872       3.29047275       9.11199888
Si       4.75284609       3.04709149       4.65454179
Si       8.52182819       3.31725794       3.36147840
Si       6.07232633       1.62623013       9.78461339
Si       9.71147076       0.97915236       8.89087653
Si      10.59522812       4.08671476      11.01880407
Si       5.01991488       0.94547003       5.81932836
Si       6.75183438       4.77601639      10.61091296
Si       6.86651935       2.73396949      11.72015000
Si       9.18747650       2.65618156      12.33592414
Si       5.72668126       1.25561582       1.40215391
16
Lattice="6.556614334780823 0.5213098571385864 1.583956327355294 2.8070720523018933 4.253623221219435 0.9073609567280347 6.217478625101341 1.7862556017701268 13.75035114562408" Properties=species:S:1:pos:R:3 unique_starting_index=3 config_type=initial n_minim_iter=17 stress="-0.0008006444282814677 -0.0006431077513056326 0.00024309372333556354 -0.0006431077513056326 -0.0010766458858548077 0.00033359450155450197 0.00024309372333556354 0.00033359450155450197 0.0008890924793421021" pbc="T T T"
Si       9.38648939       5.51694436       8.43921877
Si       9.62470377       2.82494133      14.64411306
Si       2.48972074       2.87810273       4.06357571
Si       6.21648719       3.09555904       2.82253598
Si       8.71542637       1.25816536       6.65790691
Si       9.50259495       3.27656441       9.13121346
Si       4.76753330       3.01251155       4.65709834
Si       8.54857916       3.29649544       3.35102378
Si       6.08713467       1.62471267       9.78066142
Si       9.76835536       0.98103724       8.86861999
Si      10.64513709       4.06974596      11.02226764
Si       5.05801948       0.92317910       5.81921595
Si       6.78444432       4.75935642      10.59754019
Si       6.89672299       2.72490418      11.71962519
Si       9.21830392       2.64190848      12.33172274
Si       5.74390727       1.24641233       1.40577713
16
Lattice="6.5624354409179375 0.5424132880752113 1.5762132900196992 2.823437579896341 4.267974850075927 0.8990973694803532 6.217756227890208 1.7932020069643642 13.72250156228071" Properties=species:S:1:pos:R:3 unique_starting_index=3 config_type=initial n_minim_iter=18 stress="0.00018142496194911898 5.348957509350891e-05 -0.00021354702632530798 5.348957509350891e-05 -0.00018800437597865362 -2.3400492473724896e-05 -0.00021354702632530798 -2.3400492473724896e-05 3.985545751827712e-05" pbc="T T T"
Si       9.40267623       5.54674417       8.41378034
Si       9.63117814       2.83634003      14.60994177
Si       2.50385441       2.88563620       4.04625365
Si       6.23754421       3.11423958       2.80826051
Si       8.72322789       1.28552578       6.64794503
Si       9.51511294       3.29857961       9.10580271
Si       4.78120385       3.03534258       4.63533020
Si       8.57106460       3.32978170       3.32677824
Si       6.08077960       1.63684074       9.75273300
Si       9.76514981       1.00268044       8.86154040
Si      10.65366991       4.09260420      11.00272342
Si       5.05670497       0.95497915       5.80140402
Si       6.80558198       4.76899072      10.57488909
Si       6.90134865       2.73287248      11.69341145
Si       9.21880390       2.65808796      12.30550594
Si       5.75572828       1.26683726       1.39538749
16
Lattice="6.574042192858864 0.5499289956499999 1.581508888120477 2.8330923159476993 4.276081618855469 0.9007591190872424 6.247192370661924 1.800782350848533 13.698505231202647" Properties=species:S:1:pos:R:3 unique_starting_index=3 config_type=initial n_minim_iter=19 stress="0.0002334317381901703 0.0002998452838896139 0.00044433150969019924 0.0002998452838896139 0.0021211499085428153 -8.240621864498405e-05 0.00044433150969019924 -8.240621864498405e-05 -0.001332616884798158" pbc="T T T"
Si       9.43171858       5.56669561       8.40855350
Si       9.67132186       2.83914836      14.58539693
Si       2.52062808       2.88143798       4.03581991
Si       6.26166030       3.11866164       2.81289679
Si       8.74000601       1.28976991       6.65329664
Si       9.50774538       3.32879019       9.11429954
Si       4.79911950       3.04402348       4.63152895
Si       8.59897583       3.33502116       3.32676503
Si       6.09832069       1.66020646       9.74010925
Si       9.79816254       1.01632447       8.84164228
Si      10.69161309       4.11235842      10.99441641
Si       5.08217517       0.95673662       5.79336701
Si       6.83350397       4.78166555      10.55569578
Si       6.93410310       2.74223273      11.67408340
Si       9.24951050       2.66839444      12.28654334
Si       5.76815889       1.27491028       1.39485697
16
Lattice="6.57088996726153 0.5429213403172183 1.5832547411220428 2.830192044783166 4.255421075161647 0.8964003294316103 6.238893081981793 1.771854814097228 13.739671496117888" Properties=species:S:1:pos:R:3 unique_starting_index=3 config_type=initial n_minim_iter=20 stress="-0.0001588979579134441 0.00017617568974191144 -7.286056685209817e-05 0.00017617568974191144 -0.0004888620733484496 -0.00010706754468870778 -7.286056685209817e-05 -0.00010706754468870778 0.0004111899842993423" pbc="T T T"
Si       9.42333843       5.52464237       8.42321222
Si       9.66860368       2.79193739      14.62124117
Si       2.51691203       2.86124938       4.04105307
Si       6.26764377       3.09799595       2.81516300
Si       8.73775436       1.27459407       6.68099066
Si       9.48029692       3.30347758       9.14716600
Si       4.80192364       3.03635478       4.63356617
Si       8.60330938       3.30984285       3.32523728
Si       6.08148858       1.65093478       9.76897064
Si       9.78389517       0.99666820       8.86938316
Si      10.67688925       4.07424010      11.02974596
Si       5.07676755       0.95420076       5.80750843
Si       6.82431124       4.73863716      10.58439582
Si       6.92811731       2.70194664      11.70354323
Si       9.24036941       2.62847298      12.31797477
Si       5.76699566       1.26276485       1.38738116
16
Lattice="6.584419480524578 0.5349062741712185 1.5849286226977441 2.831628785165096 4.247033078602489 0.8966956376806042 6.256740483592757 1.7621856715609845 13.728107776996469" Properties=species:S:1:pos:R:3 unique_starting_index=3 config_type=initial n_minim_iter=21 stress="0.0002148251701185065 -0.0005778076105385167 -4.491261649565769e-05 -0.0005778076105385167 -4.9816743997730935e-05 0.0004272344096882547 -4.491261649565769e-05 0.0004272344096882547 -0.0001402242014288271" pbc="T T T"
Si       9.43852602       5.51470407       8.42144702
Si       9.70154075       2.76656200      14.60615126
Si       2.52475586       2.85068043       4.03721872
Si       6.29034610       3.07901368       2.81643396
Si       8.75338399       1.26276227       6.68588718
Si       9.45586690       3.29463133       9.17020580
Si       4.81389226       3.02638017       4.62965554
Si       8.63037436       3.28957739       3.32029625
Si       6.08196413       1.65980841       9.75535921
Si       9.81409914       0.99620438       8.85716533
Si      10.69832483       4.06033786      11.02860747
Si       5.09887960       0.94762713       5.79910007
Si       6.84203608       4.72048114      10.56989161
Si       6.94916665       2.68710623      11.69461343
Si       9.26345024       2.61121844      12.30591620
Si       5.78084911       1.24852524       1.38444708
