10
Lattice="4.537074813105215 -8.186627705452545e-37 1.1424489931350571e-39 1.3811294461208693e-56 3.8733688769470795 4.856769878534441e-12 -2.287112825962579e-39 -1.323627083111887e-11 10.556171925398868" Properties=species:S:1:pos:R:3 unique_starting_index=72 config_type=initial n_minim_iter=14 energy=-1629.4229388161195 free_energy=-1629.4229388161195 pbc="T T T"
Si       4.03371929       2.88937753       3.73462142
Si       4.03371929       0.98399134       6.82155050
Si       1.76518188       0.95269310       1.54346454
Si       1.76518188       2.92067578       9.01270739
Si       0.87862107       0.98470355       3.73480314
Si       0.87862107       2.88866533       6.82136879
Si       3.14715848       2.92138799       1.54328282
Si       3.14715848       0.95198089       9.01288910
Si       0.18717836      -0.00000000      -0.00000000
Si       2.45571577       1.93668444       5.27808596
