24
Lattice="7.922295585369646 2.371022425505149 -0.31393582349477755 -1.992332764323049 7.180808117923754 0.12327334085869233 -0.3335629123644854 -0.12339135761939887 7.456353064435486" Properties=species:S:1:pos:R:3 unique_starting_index=90 config_type=initial n_minim_iter=1 energy=-3906.8123296508743 free_energy=-3906.8123296508743 pbc="T T T"
Si       5.53308352       1.10952893       4.97014080
Si       0.80640210       3.63308734      -0.23904029
Si       5.65859103       7.43493645       1.32168240
Si       2.12340966       1.00037003       2.37166922
Si       4.80308931       4.46321325       6.52411045
Si      -0.63888223       5.66600477       6.39713452
Si       0.40404837       2.53985483       1.82270676
Si       2.48927460       4.73057680       6.87871962
Si       0.03104832       7.85140334       5.00913082
Si       5.84733058       3.54447196       4.55560556
Si       2.35420342       6.25538088       1.26511829
Si       4.18102607       9.15191412       2.14600255
Si       4.73395804       9.32757562      -0.18964158
Si       7.97875301       4.43358305       5.01755259
Si      -0.01786397       6.00951559       1.48202963
Si      -1.34028854       7.75640067       7.49875971
Si      -1.85665739       1.81615107       1.52712371
Si       5.12931232       6.89449268       6.40704481
Si       3.58441375       1.90459879       6.22671301
Si      -0.09591739       3.90173666       3.75270817
Si       1.36645102       5.47958228       4.91477880
Si       4.08390566       1.44201915       1.06483424
Si       5.40577451       5.55493303       3.06812033
Si       3.16497852       6.38444073       3.48359881
24
Lattice="7.901457949718014 2.376571451387633 -0.3432973397765299 -1.984891598473878 7.188610687407474 0.1223453819021595 -0.3558981127664423 -0.13188370339841282 7.505988271092894" Properties=species:S:1:pos:R:3 unique_starting_index=90 config_type=initial n_minim_iter=2 stress="0.0007582929509817585 -0.0007069773456508817 5.2216290792087834e-05 -0.0007069773456508817 0.002646750281087682 5.099082134583726e-05 5.2216290792087834e-05 5.099082134583726e-05 0.003615910854251944" pbc="T T T"
Si       5.50104515       1.10726293       4.98364244
Si       0.80677228       3.63639892      -0.24772208
Si       5.64073568       7.44442640       1.30580357
Si       2.10969946       1.00074544       2.38018507
Si       4.76958324       4.46232559       6.54540993
Si      -0.65579629       5.66403591       6.43571697
Si       0.39896517       2.54238649       1.83059955
Si       2.46277232       4.72846913       6.90946968
Si       0.01811519       7.85529949       5.03199458
Si       5.81759527       3.54516706       4.56411000
Si       2.34510340       6.26336295       1.25939918
Si       4.16370518       9.16107762       2.13822374
Si       4.72484703       9.34090049      -0.21741850
Si       7.94425268       4.43436023       5.02099474
Si      -0.02114682       6.01478838       1.48572329
Si      -1.35819584       7.75700984       7.54217592
Si      -1.85507026       1.81617323       1.54096930
Si       5.09694080       6.89826982       6.42386181
Si       3.55554520       1.90061131       6.25406588
Si      -0.10653316       3.90205448       3.77306884
Si       1.34920824       5.48282776       4.93510857
Si       4.06900398       1.44179206       1.05771165
Si       5.38277521       5.56090431       3.06497222
Si       3.14607216       6.38902313       3.49002054
24
Lattice="7.870904574020264 2.3812080370351962 -0.3735172934720057 -1.9641406928300122 7.157100454929615 0.11993002094485118 -0.3802088273074164 -0.1415676840138466 7.506477811495235" Properties=species:S:1:pos:R:3 unique_starting_index=90 config_type=initial n_minim_iter=3 stress="-0.005225061815324414 -0.00036761994450746325 -0.0011528409741387244 -0.00036761994450746325 -0.0024699314640783906 -0.0005305906135069048 -0.0011528409741387244 -0.0005305906135069048 0.0002897058588587255" pbc="T T T"
Si       5.45875871       1.10649389       4.96212513
Si       0.81160337       3.62087125      -0.25613618
Si       5.62344685       7.42415843       1.27903364
Si       2.09272505       0.99942397       2.37293408
Si       4.73190628       4.44375076       6.52019479
Si      -0.66609081       5.63001033       6.43256715
Si       0.39717545       2.53388130       1.82579080
Si       2.43688210       4.70398905       6.89229023
Si       0.01494206       7.81836183       5.01924371
Si       5.78138302       3.53498051       4.54102794
Si       2.34030291       6.24360873       1.24371185
Si       4.15064191       9.12887044       2.11422941
Si       4.72151413       9.31389766      -0.24809546
Si       7.90352112       4.42179560       4.98856382
Si      -0.01702716       5.98922349       1.47902634
Si      -1.36577206       7.71501057       7.53413481
Si      -1.84811933       1.80411338       1.54508494
Si       5.06371973       6.87402724       6.39461109
Si       3.52176330       1.89042556       6.23937993
Si      -0.11299279       3.88130133       3.76794260
Si       1.33612659       5.46091221       4.92044718
Si       4.04833408       1.43794891       1.04194554
Si       5.35800045       5.54644848       3.03859913
Si       3.12875855       6.36490184       3.47195471
24
Lattice="7.946960379844656 2.430651130938057 -0.4245218543620434 -1.9315376526763115 7.13115808918061 0.11851443393324883 -0.42779333362637567 -0.15718661131575543 7.499364603624301" Properties=species:S:1:pos:R:3 unique_starting_index=90 config_type=initial n_minim_iter=4 stress="0.003327095980797269 0.0036120563202526024 -0.003345678854420318 0.0036120563202526024 -0.0024282099843084565 -0.0008836648008453694 -0.003345678854420318 -0.0008836648008453694 0.00046204079744138044" pbc="T T T"
Si       5.46830655       1.13466575       4.91848269
Si       0.84906260       3.60805465      -0.27052926
Si       5.70707508       7.44955936       1.23925642
Si       2.09807198       1.01522569       2.36211540
Si       4.75417547       4.45227788       6.46629873
Si      -0.67439003       5.59388589       6.42836120
Si       0.41432370       2.54205130       1.81621089
Si       2.44907273       4.69443498       6.85352388
Si       0.04160456       7.79538906       4.98964077
Si       5.81922902       3.55764103       4.50192019
Si       2.39060315       6.25401249       1.21888606
Si       4.22141220       9.13408252       2.07927870
Si       4.82459865       9.33388087      -0.30152330
Si       7.98150664       4.44912621       4.93121845
Si       0.00975314       5.97496682       1.47097563
Si      -1.37197304       7.67983927       7.51142696
Si      -1.85627447       1.78620992       1.55169338
Si       5.11014250       6.89272706       6.33565611
Si       3.52605497       1.89669752       6.21068277
Si      -0.11226954       3.86468944       3.75664826
Si       1.35617389       5.46564275       4.88663335
Si       4.07614175       1.44659105       1.01422667
Si       5.41943955       5.57473638       2.99111823
Si       3.16591212       6.36801476       3.44299057
24
Lattice="7.91423646495893 2.413802138131186 -0.3879331067151572 -1.9546480636794783 7.186242063036132 0.1146915812457561 -0.3949607837005708 -0.1512799477266879 7.462098617864981" Properties=species:S:1:pos:R:3 unique_starting_index=90 config_type=initial n_minim_iter=5 stress="-0.0007133809814727502 0.001043211683647647 0.00018420029462380358 0.001043211683647647 0.00014933142089426808 -4.349302832270827e-05 0.00018420029462380358 -4.349302832270827e-05 -0.0008838433303385043" pbc="T T T"
Si       5.45136452       1.12777056       4.91325262
Si       0.84371245       3.60561954      -0.26886839
Si       5.66769274       7.48171752       1.27895399
Si       2.09522276       1.02928488       2.37250536
Si       4.74248498       4.45968513       6.44170994
Si      -0.67506501       5.61736876       6.41808784
Si       0.42302792       2.58390230       1.80970978
Si       2.45680597       4.70887065       6.82241817
Si       0.03928391       7.84808023       4.95408472
Si       5.80634413       3.55732099       4.52140571
Si       2.36093433       6.29826098       1.23049605
Si       4.16680976       9.17367023       2.10923435
Si       4.78139490       9.38450879      -0.28786179
Si       7.99700418       4.43042959       4.95117704
Si      -0.01608613       6.01307445       1.47732866
Si      -1.37627216       7.74262574       7.46245171
Si      -1.84598106       1.80763385       1.53933605
Si       5.09656790       6.93574650       6.31716807
Si       3.53878970       1.89367034       6.20456215
Si      -0.11613404       3.88935972       3.74151065
Si       1.35406764       5.52681046       4.85453738
Si       4.05227602       1.41512810       1.02881542
Si       5.39992214       5.60545497       3.00072239
Si       3.13100750       6.39757158       3.45571502
24
Lattice="7.9341399840508675 2.356001328139252 -0.4046730455726336 -2.006500420721519 7.167364900412373 0.11859897799947476 -0.41108912860223684 -0.14906331114350152 7.467857849769863" Properties=species:S:1:pos:R:3 unique_starting_index=90 config_type=initial n_minim_iter=6 stress="0.0012993999723848715 -0.0021090496061468684 -0.0006532320884537503 -0.0021090496061468684 -0.0015210024833410352 7.608759654670436e-05 -0.0006532320884537503 7.608759654670436e-05 -5.925326845787417e-05" pbc="T T T"
Si       5.45000771       1.09136819       4.90080587
Si       0.83401486       3.57871366      -0.27419719
Si       5.64257197       7.41896439       1.27404401
Si       2.09247083       1.01731844       2.37243914
Si       4.72091972       4.41155431       6.43267966
Si      -0.72589345       5.58700516       6.43226273
Si       0.40817257       2.57927111       1.80979950
Si       2.42220885       4.67062451       6.81777759
Si      -0.00989475       7.81066868       4.94933007
Si       5.80464538       3.50662426       4.51551308
Si       2.32915412       6.25487395       1.22481578
Si       4.11936881       9.10988443       2.10529170
Si       4.74635184       9.31958073      -0.30071165
Si       8.00297793       4.35406677       4.93680535
Si      -0.05792799       5.98901779       1.48362892
Si      -1.44560381       7.71614130       7.46562415
Si      -1.86336239       1.81021376       1.54443515
Si       5.06254760       6.87809393       6.30660150
Si       3.52976065       1.86197360       6.20396227
Si      -0.14803168       3.87262879       3.74688105
Si       1.31292895       5.50437592       4.85009331
Si       4.05419885       1.37817973       1.02277960
Si       5.38391798       5.55487134       2.99081338
Si       3.09559601       6.35049101       3.45489755
24
Lattice="7.937057594272366 2.4063314984212854 -0.3986813137506794 -1.9649423704144635 7.177134282189548 0.10605347142452137 -0.4020807808499023 -0.16187976910732657 7.4789611734181936" Properties=species:S:1:pos:R:3 unique_starting_index=90 config_type=initial n_minim_iter=7 stress="0.0002893639874024695 -0.0013761942308054553 0.0025120885329160997 -0.0013761942308054553 0.0016710220968761819 0.00039217905800384266 0.0025120885329160997 0.00039217905800384266 0.003950829576518702" pbc="T T T"
Si       5.41453031       1.12563815       4.88995413
Si       0.89518285       3.56472594      -0.29665671
Si       5.66576423       7.48885343       1.30305769
Si       2.09682477       1.05799607       2.38681640
Si       4.73885128       4.44442634       6.43096567
Si      -0.68674162       5.53740859       6.47989139
Si       0.43559113       2.63044054       1.81102096
Si       2.43535836       4.67975697       6.80511025
Si       0.08572378       7.80616433       4.90426238
Si       5.85239334       3.54409415       4.53734060
Si       2.35449415       6.25747452       1.20955361
Si       4.14179356       9.16101707       2.11323688
Si       4.78781035       9.39148289      -0.31402931
Si       8.06186911       4.35395296       4.93472600
Si      -0.03442025       6.01523676       1.50811639
Si      -1.39555530       7.71324086       7.44316354
Si      -1.82369787       1.80040059       1.54207793
Si       5.09340515       6.92991302       6.29560067
Si       3.54437910       1.87047300       6.22845542
Si      -0.12102101       3.87687313       3.76443865
Si       1.32089394       5.56955265       4.83410289
Si       4.03278168       1.37884831       1.03874866
Si       5.41405776       5.62726848       2.99209327
Si       3.12241305       6.37566317       3.46993184
24
Lattice="7.940288376226199 2.4395928793561397 -0.45593335790297035 -1.949382336754 7.220943138427717 0.1117674284917207 -0.4555578589971712 -0.1714753630219217 7.433285285031885" Properties=species:S:1:pos:R:3 unique_starting_index=90 config_type=initial n_minim_iter=8 stress="0.00022753747269694464 -0.0014260980462203626 -0.0003322990362311609 -0.0014260980462203626 0.00499629758183144 0.0006816470113958094 -0.0003322990362311609 0.0006816470113958094 0.001189912311638652" pbc="T T T"
Si       5.35963826       1.14410799       4.80403831
Si       0.92729667       3.57804808      -0.31494379
Si       5.66081716       7.56122245       1.25837717
Si       2.08133684       1.08207316       2.35605724
Si       4.69710328       4.48324329       6.35035347
Si      -0.71916258       5.53650258       6.46204877
Si       0.42975009       2.66683694       1.79409752
Si       2.38323912       4.70922268       6.72745729
Si       0.09807690       7.84016912       4.84112736
Si       5.84512123       3.57788209       4.46347581
Si       2.35328921       6.27963065       1.17146999
Si       4.13167102       9.23500073       2.06176915
Si       4.80041255       9.47431570      -0.35501246
Si       8.04381645       4.36853138       4.82689914
Si      -0.03761033       6.06244484       1.51006950
Si      -1.43031852       7.74721267       7.38757451
Si      -1.81439543       1.80651198       1.54212533
Si       5.05258382       6.98379624       6.20598485
Si       3.49988110       1.88210115       6.16698998
Si      -0.13745988       3.90034097       3.74892612
Si       1.27622536       5.62652516       4.78436696
Si       4.01471959       1.38987663       1.00817673
Si       5.40201623       5.68861664       2.92712027
Si       3.10954614       6.41777024       3.42095587
24
Lattice="7.966749922428163 2.462107321724193 -0.4564549856916992 -1.9153884331263564 7.149648771673738 0.08431541016140878 -0.448500951882962 -0.19874554365515987 7.454763602354258" Properties=species:S:1:pos:R:3 unique_starting_index=90 config_type=initial n_minim_iter=9 stress="0.00022765540697915228 0.0010099304686563828 0.000631042526270865 0.0010099304686563828 -0.0013740204408993852 -0.0011426360800069384 0.000631042526270865 -0.0011426360800069384 0.001224492626174369" pbc="T T T"
Si       5.36787650       1.15045784       4.80610598
Si       0.96586292       3.54598799      -0.33627320
Si       5.70278370       7.53454140       1.24906483
Si       2.09624364       1.08781748       2.35541283
Si       4.73629274       4.45770502       6.36457672
Si      -0.68108766       5.43548529       6.48309737
Si       0.44312611       2.65212295       1.79130904
Si       2.40866852       4.66387651       6.72348938
Si       0.17732254       7.74361992       4.80914747
Si       5.90172063       3.56522866       4.46614299
Si       2.38594936       6.20707738       1.14916406
Si       4.18229778       9.18156686       2.03685643
Si       4.84635283       9.42843014      -0.37719474
Si       8.09029302       4.33393015       4.81691006
Si      -0.00810454       6.01665181       1.51146440
Si      -1.38006785       7.63659824       7.37569922
Si      -1.79117289       1.77718906       1.53727045
Si       5.09419669       6.92661039       6.20824190
Si       3.51958756       1.86499390       6.18693589
Si      -0.10931638       3.85748697       3.75980365
Si       1.28617817       5.58207233       4.78479421
Si       4.02351406       1.39587366       1.01818213
Si       5.44492110       5.66972497       2.92230599
Si       3.15865806       6.36325621       3.40938682
24
Lattice="7.959960001142971 2.456439675001068 -0.4473256934167424 -1.9193596236192563 7.156710073325743 0.12039495702656118 -0.45103151028872834 -0.16173800616830075 7.444132253156462" Properties=species:S:1:pos:R:3 unique_starting_index=90 config_type=initial n_minim_iter=10 stress="-0.0003356514776829708 0.0006781827349694127 -0.0004459580688204375 0.0006781827349694127 -0.0012158387241733553 0.0017123916108678537 -0.0004459580688204375 0.0017123916108678537 -0.00027500531738372557" pbc="T T T"
Si       5.37121447       1.17290412       4.80466723
Si       0.95476272       3.54830844      -0.31604572
Si       5.69386271       7.54214612       1.27437321
Si       2.09487705       1.09636449       2.35004135
Si       4.73041149       4.49340150       6.38212403
Si      -0.68734028       5.47439289       6.49842879
Si       0.43529194       2.65363537       1.80056499
Si       2.40603730       4.70512589       6.73483895
Si       0.16867923       7.77658425       4.84548420
Si       5.89073533       3.58536088       4.46825061
Si       2.37790490       6.21546660       1.18144036
Si       4.17595140       9.19959187       2.07324773
Si       4.83253823       9.42779555      -0.32920687
Si       8.07344283       4.36080152       4.82445774
Si      -0.01238476       6.02944473       1.53864854
Si      -1.38572249       7.67408226       7.40903549
Si      -1.79382494       1.79101249       1.54427890
Si       5.07982649       6.95415221       6.24069624
Si       3.51148954       1.90021132       6.18501335
Si      -0.11331484       3.88125153       3.77491589
Si       1.27613545       5.59692904       4.81441477
Si       4.02713299       1.40503326       1.02057203
Si       5.43708075       5.67945056       2.94504798
Si       3.15496397       6.38073142       3.42738223
24
Lattice="7.952563536251797 2.446530023277073 -0.4566676804092583 -1.94374022152653 7.206274940521144 0.06287942668162308 -0.44407138398481233 -0.21851032864159728 7.401126424444925" Properties=species:S:1:pos:R:3 unique_starting_index=90 config_type=initial n_minim_iter=11 stress="-0.00031649816715720135 -0.0012000790328076188 -0.001256530169072739 -0.0012000790328076188 0.0013491115871861609 -0.00213424014127443 -0.001256530169072739 -0.00213424014127443 -0.0037203340366159885" pbc="T T T"
Si       5.38801735       1.12934313       4.77259524
Si       0.92981760       3.56234950      -0.33868707
Si       5.67127832       7.56091411       1.20158433
Si       2.09691626       1.07803355       2.31698784
Si       4.72711587       4.46314360       6.32191653
Si      -0.70442911       5.45343346       6.42051532
Si       0.42022348       2.64386874       1.76770073
Si       2.41013110       4.68473629       6.65171432
Si       0.15205629       7.79373608       4.75927273
Si       5.87661372       3.54967166       4.40818933
Si       2.35227098       6.23682010       1.13990607
Si       4.14948085       9.23280364       1.98947729
Si       4.79323427       9.46864646      -0.39390372
Si       8.06437097       4.32406832       4.76162790
Si      -0.03362184       6.05704367       1.48856752
Si      -1.40380329       7.65231052       7.31082379
Si      -1.80017685       1.80773313       1.51927287
Si       5.05281495       6.92408363       6.17240882
Si       3.50707415       1.86469502       6.13617825
Si      -0.12408319       3.88020683       3.72560490
Si       1.25183268       5.57164914       4.75925383
Si       4.03916206       1.39468613       1.00508660
Si       5.42670768       5.66503976       2.89023498
Si       3.14147713       6.37526600       3.34677795
24
Lattice="7.964057616356452 2.4681216684008134 -0.4472290685210356 -1.9190797461883737 7.185242548567081 0.10171011624038301 -0.44688668584041336 -0.1800311053834195 7.417219033137067" Properties=species:S:1:pos:R:3 unique_starting_index=90 config_type=initial n_minim_iter=12 stress="1.048908472175129e-05 0.00022749421489637946 -0.0012599045770012244 0.00022749421489637946 -0.000980759494746277 0.002369330108002513 -0.0012599045770012244 0.002369330108002513 -0.0018674707034508661" pbc="T T T"
Si       5.38009330       1.18834989       4.76946907
Si       0.96182383       3.51663311      -0.33483562
Si       5.69107252       7.59447791       1.25555500
Si       2.10291167       1.12752892       2.32000177
Si       4.74384749       4.51870224       6.35474822
Si      -0.69813708       5.41120539       6.51361872
Si       0.43411024       2.67671962       1.78242793
Si       2.43353615       4.72425014       6.65827907
Si       0.22784502       7.79968239       4.77511033
Si       5.90102664       3.58462264       4.43197914
Si       2.35727550       6.22867840       1.18421144
Si       4.16118070       9.25633397       2.05175789
Si       4.81738003       9.48041056      -0.35490703
Si       8.12509835       4.32840661       4.77390780
Si      -0.02841677       6.06342755       1.56053267
Si      -1.38281140       7.63985316       7.35468278
Si      -1.77658628       1.82076629       1.53211806
Si       5.05598521       6.96756131       6.23051625
Si       3.50966561       1.92061563       6.17211825
Si      -0.11578303       3.89388525       3.77266197
Si       1.23669811       5.61500298       4.80232409
Si       4.04536800       1.38593901       1.01774688
Si       5.46122842       5.70885271       2.92560396
Si       3.15780759       6.37577038       3.38363987
24
Lattice="7.953263069833233 2.479520168621224 -0.4199409373460107 -1.9125348480108866 7.199570109825679 0.0351389186403007 -0.40244575241061825 -0.23788225337347996 7.446663640392952" Properties=species:S:1:pos:R:3 unique_starting_index=90 config_type=initial n_minim_iter=13 stress="0.00022037062197326521 9.309738084641209e-05 0.0017769654853885453 9.309738084641209e-05 0.0007525156765457707 -0.0012406151756330147 0.0017769654853885453 -0.0012406151756330147 0.003134718666919746" pbc="T T T"
Si       5.40697930       1.16236986       4.80535467
Si       0.96943178       3.50849898      -0.36793358
Si       5.68821781       7.61528244       1.24066540
Si       2.11681721       1.12999168       2.32350955
Si       4.79031658       4.49206108       6.37126892
Si      -0.66554664       5.33169934       6.52159987
Si       0.44891284       2.67635465       1.77317100
Si       2.47408341       4.68581333       6.65371350
Si       0.28610634       7.79345652       4.71763653
Si       5.92397254       3.56080581       4.45211146
Si       2.35242598       6.23146782       1.15793817
Si       4.16595601       9.27689771       2.01813452
Si       4.80408068       9.51275411      -0.40837609
Si       8.16686330       4.28160462       4.80046967
Si      -0.02557610       6.06893044       1.54195853
Si      -1.33537086       7.57298721       7.30979082
Si      -1.76364092       1.82457008       1.51242558
Si       5.07413620       6.93726873       6.24767974
Si       3.54166487       1.89628551       6.21102227
Si      -0.09686910       3.87189770       3.76358211
Si       1.24889692       5.59142015       4.79489652
Si       4.05725960       1.36890168       1.03011191
Si       5.48461049       5.70818886       2.92877833
Si       3.17547590       6.35293135       3.36800440
24
Lattice="7.945760288499395 2.4909064451590206 -0.4509959383865694 -1.9109748607726231 7.232263126216596 0.02555767596112073 -0.42796929880929957 -0.2548872195336321 7.408232650800357" Properties=species:S:1:pos:R:3 unique_starting_index=90 config_type=initial n_minim_iter=14 stress="-1.659955741512379e-05 -0.00041372444655144916 -0.00018652259281417606 -0.00041372444655144916 0.000541969311147285 -0.0014503255165840704 -0.00018652259281417606 -0.0014503255165840704 -0.0007453888426135519" pbc="T T T"
Si       5.39176808       1.15789650       4.75073403
Si       0.98545659       3.51052451      -0.39095026
Si       5.66305026       7.65917236       1.20675337
Si       2.10956458       1.14730550       2.28935591
Si       4.78379504       4.51226931       6.30224131
Si      -0.69940920       5.28941392       6.50610144
Si       0.44916896       2.69101335       1.75980157
Si       2.44004800       4.68768358       6.59948867
Si       0.30121976       7.84740983       4.64854829
Si       5.90767845       3.57121586       4.39077056
Si       2.33282039       6.25419824       1.12477196
Si       4.14905581       9.33570169       1.97658429
Si       4.78454350       9.56544699      -0.45648801
Si       8.15631461       4.26315957       4.73166873
Si      -0.04278859       6.09672952       1.54552538
Si      -1.35998401       7.55874510       7.24356958
Si      -1.77364362       1.84190376       1.50289751
Si       5.02569945       6.95545438       6.19963525
Si       3.51746143       1.91693932       6.16924519
Si      -0.11811882       3.87661886       3.73733342
Si       1.21323416       5.60356011       4.76311704
Si       4.06276568       1.35879084       0.99230589
Si       5.47563875       5.73844557       2.88505775
Si       3.15738641       6.36115496       3.33377392
24
Lattice="7.939025934004333 2.4990215842799417 -0.44766742371123336 -1.9019080076901287 7.23420952980571 0.03939683439282471 -0.42872733743121905 -0.24120260406075342 7.40943528729485" Properties=species:S:1:pos:R:3 unique_starting_index=90 config_type=initial n_minim_iter=15 stress="-8.602180292926647e-05 -0.00012356212078737248 -0.00020697377472761377 -0.00012356212078737248 -0.00022510910871540596 -0.00012563146941065183 -0.00020697377472761377 -0.00012563146941065183 -0.0008771915753779185" pbc="T T T"
Si       5.39454555       1.16808785       4.75179177
Si       0.99480908       3.51185720      -0.38964509
Si       5.65331732       7.67526013       1.22672572
Si       2.11258457       1.15764293       2.28245943
Si       4.79493055       4.53957357       6.30652287
Si      -0.69992302       5.27991474       6.52663388
Si       0.45408498       2.69397112       1.76657221
Si       2.43518902       4.69858668       6.61985040
Si       0.32261638       7.88367535       4.65380696
Si       5.90724156       3.59105365       4.39024056
Si       2.33171825       6.26243767       1.13079263
Si       4.15553679       9.36166832       1.99431027
Si       4.77843430       9.57792259      -0.44672666
Si       8.14879361       4.27258310       4.74213203
Si      -0.04196491       6.10342237       1.56760972
Si      -1.35030594       7.55650173       7.25069452
Si      -1.77913447       1.84919540       1.50497005
Si       5.01447659       6.97373453       6.22631138
Si       3.51823926       1.95081549       6.17616314
Si      -0.11893327       3.88205948       3.74313230
Si       1.21030869       5.61002110       4.78271822
Si       4.06792070       1.36204349       0.98175293
Si       5.47442926       5.75671424       2.89890648
Si       3.15920006       6.36835923       3.35447546
24
Lattice="7.928761810720762 2.518788548630754 -0.45299631672427265 -1.8830508446023206 7.241507938559583 0.0552003636197764 -0.43716475666928883 -0.2282748653615924 7.417582425828866" Properties=species:S:1:pos:R:3 unique_starting_index=90 config_type=initial n_minim_iter=16 stress="0.00014394370725619282 0.0003089468151175081 -6.719642138030706e-05 0.0003089468151175081 -0.00039067245790255464 0.0013468540511930693 -6.719642138030706e-05 0.0013468540511930693 0.0002601052610758726" pbc="T T T"
Si       5.38963470       1.17931447       4.74909254
Si       1.00930213       3.51370113      -0.38509241
Si       5.63780918       7.70768829       1.25184286
Si       2.12175366       1.16707056       2.26775762
Si       4.79684519       4.58010056       6.30620244
Si      -0.70311098       5.26498575       6.55552876
Si       0.45858283       2.70090784       1.76841914
Si       2.43292499       4.70765066       6.65184025
Si       0.36072776       7.93957673       4.65669091
Si       5.90515835       3.62137870       4.38262550
Si       2.33685588       6.28345468       1.13671972
Si       4.16740568       9.40793028       2.01015368
Si       4.77419350       9.61041334      -0.44882274
Si       8.13288777       4.29248010       4.75816870
Si      -0.03874939       6.11597539       1.59500975
Si      -1.33604418       7.54893573       7.25548280
Si      -1.78495494       1.85880030       1.51134527
Si       4.99469528       7.00401573       6.25921247
Si       3.52024938       2.00206109       6.18275671
Si      -0.11817127       3.89054192       3.75016621
Si       1.20280621       5.62840566       4.80736597
Si       4.06916634       1.36936639       0.96227346
Si       5.46545989       5.79274704       2.91098814
Si       3.15806412       6.38474575       3.38125676
24
Lattice="7.925437104222406 2.5256186144466186 -0.4711865169394192 -1.8789738704767671 7.248375145784264 0.03976520081248789 -0.44860142511013534 -0.24771059917945903 7.413374874120764" Properties=species:S:1:pos:R:3 unique_starting_index=90 config_type=initial n_minim_iter=17 stress="4.28041681073684e-05 -0.00018399711597499714 0.00019970633819484115 -0.00018399711597499714 6.938163063318614e-05 -0.00021235838746205433 0.00019970633819484115 -0.00021235838746205433 0.0001725096951183954" pbc="T T T"
Si       5.37876041       1.16138647       4.73135948
Si       1.00161187       3.51405867      -0.37820268
Si       5.62907692       7.71318757       1.23332664
Si       2.13040746       1.14851388       2.24886222
Si       4.76826317       4.56953918       6.27844180
Si      -0.71121347       5.26000549       6.52866250
Si       0.44855728       2.69342703       1.74762308
Si       2.44233163       4.68533462       6.63982987
Si       0.36592820       7.94117097       4.63410373
Si       5.89661286       3.61085594       4.35393536
Si       2.34553207       6.29656236       1.12736152
Si       4.16551019       9.41544012       1.97721170
Si       4.77203772       9.62914071      -0.48573834
Si       8.11971325       4.29640081       4.74987762
Si      -0.03914631       6.11484146       1.57419424
Si      -1.33932363       7.52706421       7.22301535
Si      -1.78463695       1.85902084       1.51206755
Si       4.98239431       6.99445570       6.23591673
Si       3.52476529       2.00019609       6.15890700
Si      -0.11548848       3.88816322       3.73340933
Si       1.19331360       5.63126451       4.79130141
Si       4.06148101       1.37446755       0.95041731
Si       5.44626444       5.79750860       2.88562033
Si       3.14544726       6.38630035       3.36042767
24
Lattice="7.924305720235321 2.5465174519515235 -0.48723073301539294 -1.8636371499848567 7.259881774068368 0.034788691564111365 -0.46152263269023525 -0.2572065567380258 7.403665672541336" Properties=species:S:1:pos:R:3 unique_starting_index=90 config_type=initial n_minim_iter=18 stress="-0.00012085612773282197 0.0004949975793822122 -0.00025595910655757417 0.0004949975793822122 0.00029583889965270935 -0.00015824833998037607 -0.00025595910655757417 -0.00015824833998037607 -2.2742117992642335e-06" pbc="T T T"
Si       5.36359386       1.16971026       4.69951815
Si       1.01886438       3.51203859      -0.38590674
Si       5.62716256       7.74940643       1.22632711
Si       2.12921797       1.16354846       2.22894934
Si       4.76437429       4.58875757       6.24987989
Si      -0.71779859       5.22659872       6.53349895
Si       0.44953477       2.70058748       1.74275548
Si       2.43492427       4.68750714       6.61642534
Si       0.40536378       7.96102124       4.59767789
Si       5.90033162       3.62190534       4.32519680
Si       2.35026486       6.30507934       1.11814369
Si       4.16614109       9.45545411       1.95870280
Si       4.77596597       9.67277383      -0.51115986
Si       8.13239312       4.29687430       4.72221100
Si      -0.03745108       6.12656764       1.58259852
Si      -1.33550028       7.50401281       7.19225403
Si      -1.77663325       1.86686252       1.51046249
Si       4.96690426       7.01181943       6.22399719
Si       3.52470551       2.02048360       6.14405742
Si      -0.11263770       3.89385992       3.72777719
Si       1.17426233       5.65273675       4.78696459
Si       4.06146659       1.37938067       0.93617618
Si       5.44808752       5.83094821       2.86550461
Si       3.14105939       6.39352974       3.34759497
24
Lattice="7.923992820577685 2.5302854589269996 -0.4856970468753118 -1.87610496842811 7.254291052788397 0.04662835944040451 -0.463650259048449 -0.24477693262732758 7.40071050764385" Properties=species:S:1:pos:R:3 unique_starting_index=90 config_type=initial n_minim_iter=19 stress="-8.966149962207395e-05 -7.141585440952487e-05 -0.0005287729245776082 -7.141585440952487e-05 -0.0008072725794516314 0.0002696573143988714 -0.0005287729245776082 0.0002696573143988714 -0.0005929411982382619" pbc="T T T"
Si       5.36417285       1.15825625       4.69017628
Si       1.00598338       3.52309148      -0.36801477
Si       5.61938577       7.72862503       1.24176823
Si       2.12005159       1.15058009       2.22224961
Si       4.75394121       4.57745163       6.24691272
Si      -0.72843057       5.24620779       6.51770243
Si       0.43922231       2.67566557       1.75489990
Si       2.41840440       4.68100978       6.63266282
Si       0.38772383       7.96185865       4.61596052
Si       5.89393823       3.60640642       4.32117547
Si       2.35285912       6.30073789       1.13196765
Si       4.14990557       9.44303343       1.96890830
Si       4.76231193       9.66245450      -0.50015964
Si       8.13363028       4.30143877       4.73771313
Si      -0.04229761       6.10900187       1.57992004
Si      -1.34934657       7.49680239       7.19646158
Si      -1.78557773       1.87038502       1.51421117
Si       4.95913123       7.00387940       6.24087289
Si       3.54100567       2.02526532       6.13603508
Si      -0.11150240       3.90034533       3.72199252
Si       1.16708293       5.65377608       4.80874024
Si       4.06285024       1.38787801       0.93169487
Si       5.43313226       5.82276971       2.86835863
Si       3.11918695       6.38782129       3.36089785
24
Lattice="7.91895136012683 2.5378487783599297 -0.4718027353570072 -1.8742066284471 7.274019506081908 0.033084205923239185 -0.4475313252733184 -0.25477614202989063 7.399567980854271" Properties=species:S:1:pos:R:3 unique_starting_index=90 config_type=initial n_minim_iter=20 stress="-3.906633172400181e-05 9.751102535617665e-05 0.0007893193425728579 9.751102535617665e-05 0.0011713454407056207 -0.00031491801636463217 0.0007893193425728579 -0.00031491801636463217 0.000740483960300682" pbc="T T T"
Si       5.37234221       1.15478625       4.69239709
Si       1.00325839       3.53025837      -0.36659190
Si       5.61924100       7.75283346       1.24920018
Si       2.12090358       1.15025735       2.22030947
Si       4.76658687       4.57991335       6.24616365
Si      -0.71840544       5.24109946       6.51017696
Si       0.44322192       2.67939564       1.75594880
Si       2.42954175       4.68596896       6.63113034
Si       0.40697184       7.98313316       4.60066110
Si       5.90655053       3.60757516       4.32584869
Si       2.35415364       6.32083962       1.13024546
Si       4.14846907       9.47182878       1.96824900
Si       4.75598593       9.69768099      -0.50847393
Si       8.15289235       4.30410944       4.75028210
Si      -0.03744661       6.11874008       1.57541452
Si      -1.33266366       7.49492336       7.17805267
Si      -1.78412807       1.87740055       1.50732667
Si       4.96592801       7.01738848       6.24875128
Si       3.56082108       2.02771809       6.14012376
Si      -0.10185362       3.90961631       3.71505400
Si       1.17143974       5.66671956       4.81209664
Si       4.06125919       1.38635304       0.93734705
Si       5.43916425       5.84185993       2.87077446
Si       3.11960067       6.39598698       3.36340767
24
Lattice="7.927338830775872 2.526216940923261 -0.4890333822594092 -1.8857187566976663 7.270166928512384 0.03953034523536948 -0.46508704921984023 -0.2521833818311682 7.389712864758179" Properties=species:S:1:pos:R:3 unique_starting_index=90 config_type=initial n_minim_iter=21 stress="0.00079127907877476 -0.00015607382158082131 8.481477397646319e-05 -0.00015607382158082131 -0.000517121396201657 9.771078566103857e-05 8.481477397646319e-05 9.771078566103857e-05 0.00020079281968130307" pbc="T T T"
Si       5.36633645       1.14382726       4.65428343
Si       0.99262774       3.52600743      -0.35340591
Si       5.61591364       7.75104429       1.24780777
Si       2.10753546       1.13244251       2.20628446
Si       4.74878388       4.56040917       6.22011699
Si      -0.74841632       5.22542568       6.49721264
Si       0.43408927       2.67963650       1.76213151
Si       2.40226360       4.69031415       6.62061585
Si       0.40122002       7.97693674       4.58744270
Si       5.93283335       3.59335427       4.30280173
Si       2.34823004       6.32050262       1.12070590
Si       4.13024840       9.46572626       1.96368888
Si       4.74313989       9.70225824      -0.52738859
Si       8.16610117       4.29058782       4.72477289
Si      -0.03753880       6.10098713       1.57675785
Si      -1.35727752       7.47475764       7.16694127
Si      -1.80141486       1.87938410       1.50885702
Si       4.94083580       7.01227431       6.23582421
Si       3.56725892       2.01945458       6.12032367
Si      -0.11021688       3.92216605       3.70988923
Si       1.14190519       5.67182546       4.81947717
Si       4.04559043       1.37382797       0.93179274
Si       5.43560403       5.84882288       2.85003212
Si       3.10176960       6.37695339       3.36387288
