18
Lattice="6.1971460207854445 -9.867643948733892e-25 6.389639186989063e-39 1.0476997025872463e-24 6.579836172925586 -7.327686111011271e-16 1.7757250521243853e-39 1.1180568876429456e-15 10.039500930105186" Properties=species:S:1:pos:R:3 unique_starting_index=81 config_type=initial n_minim_iter=1 energy=-2926.0715719704567 free_energy=-2926.0715719704567 pbc="T T T"
Si       2.17575339       2.12233785       3.41094102
Si       2.17575339       4.45749832       6.62855991
Si       2.17575339       2.12233785       6.62855991
Si       2.17575339       4.45749832       3.41094102
Si       6.11241711       2.11472965       2.65400966
Si       6.11241711       4.46510652       7.38549127
Si       6.11241711       2.11472965       7.38549127
Si       6.11241711       4.46510652       2.65400966
Si       4.24914320       5.39931346       3.75086391
Si       4.24914320       1.18052271       6.28863702
Si       4.24914320       5.39931346       6.28863702
Si       4.24914320       1.18052271       3.75086391
Si       3.93112971       4.54209256       8.81180698
Si       3.93112971       2.03774361       1.22769395
Si       3.93112971       4.54209256       1.22769395
Si       3.93112971       2.03774361       8.81180698
Si       2.62622637       6.57983617       8.88778484
Si       2.62622637       0.00000000       1.15171609
18
Lattice="6.0716181463921925 -9.656989153533011e-25 6.502059086075723e-39 1.0416513123508152e-24 6.534531751102829 -7.277232486660518e-16 1.775715120010339e-39 1.1343522753710825e-15 10.185824039475667" Properties=species:S:1:pos:R:3 unique_starting_index=81 config_type=initial n_minim_iter=2 stress="-0.006659750794510823 -2.884592278238434e-17 -1.1675730649998158e-16 -2.884592278238434e-17 -0.009153147993220565 1.6563457684743716e-17 -1.1675730649998158e-16 1.6563457684743716e-17 -0.0059618198145973515" pbc="T T T"
Si       2.13264333       2.10534228       3.45973707
Si       2.13264333       4.42918947       6.72608697
Si       2.13264333       2.10534228       6.72608697
Si       2.13264333       4.42918947       3.45973707
Si       5.98454995       2.09961444       2.69027042
Si       5.98454995       4.43491731       7.49555362
Si       5.98454995       2.09961444       7.49555362
Si       5.98454995       4.43491731       2.69027042
Si       4.16503799       5.36301994       3.80990129
Si       4.16503799       1.17151181       6.37592275
Si       4.16503799       5.36301994       6.37592275
Si       4.16503799       1.17151181       3.80990129
Si       3.85304911       4.51013872       8.93986625
Si       3.85304911       2.02439303       1.24595779
Si       3.85304911       4.51013872       1.24595779
Si       3.85304911       2.02439303       8.93986625
Si       2.57219472       6.53453175       9.01305402
Si       2.57219472       0.00000000       1.17277002
18
Lattice="6.039268168220008 -9.611836185671016e-25 6.533823700272757e-39 1.047877870847428e-24 6.578233914954781 -7.32590174386721e-16 1.640484655363283e-39 1.1536470703429976e-15 10.359080082354534" Properties=species:S:1:pos:R:3 unique_starting_index=81 config_type=initial n_minim_iter=3 stress="-0.0005690196787018368 6.528460463721842e-17 -9.226171399149549e-17 6.528460463721842e-17 0.0020349868471162586 -6.135968668711003e-17 -9.226171399149549e-17 -6.135968668711003e-17 0.007596998048973654" pbc="T T T"
Si       2.12216018       2.11671743       3.51728262
Si       2.12216018       4.46151648       6.84179746
Si       2.12216018       2.11671743       6.84179746
Si       2.12216018       4.46151648       3.51728262
Si       5.94784525       2.11255659       2.73281029
Si       5.94784525       4.46567733       7.62626980
Si       5.94784525       2.11255659       7.62626980
Si       5.94784525       4.46567733       2.73281029
Si       4.14563476       5.40012536       3.88081341
Si       4.14563476       1.17810855       6.47826668
Si       4.14563476       5.40012536       6.47826668
Si       4.14563476       1.17810855       3.88081341
Si       3.83437131       4.53941488       9.09180371
Si       3.83437131       2.03881903       1.26727637
Si       3.83437131       4.53941488       1.26727637
Si       3.83437131       2.03881903       9.09180371
Si       2.55708800       6.57823391       9.16192021
Si       2.55708800       0.00000000       1.19715987
18
Lattice="5.8472591127318685 -9.391531239170048e-25 6.398500257310529e-39 1.0575260626947816e-24 6.695379120288087 -7.45636141969076e-16 1.4524877371176454e-39 1.145480887758305e-15 10.285752509705349" Properties=species:S:1:pos:R:3 unique_starting_index=81 config_type=initial n_minim_iter=4 stress="-0.010435076406125857 3.625537481351517e-17 -1.619085084355988e-16 3.625537481351517e-17 0.012073987289486046 5.182340063948718e-18 -1.619085084355988e-16 5.182340063948718e-18 -0.010063434933784022" pbc="T T T"
Si       2.06716270       2.12533941       3.46462466
Si       2.06716270       4.57003971       6.82112785
Si       2.06716270       2.12533941       6.82112785
Si       2.06716270       4.57003971       3.46462466
Si       5.68535403       2.13442760       2.66373582
Si       5.68535403       4.56095152       7.62201669
Si       5.68535403       2.13442760       7.62201669
Si       5.68535403       4.56095152       2.66373582
Si       4.05956736       5.52052551       3.95672750
Si       4.05956736       1.17485361       6.32902500
Si       4.05956736       5.52052551       6.32902500
Si       4.05956736       1.17485361       3.95672750
Si       3.73695621       4.60527698       9.02839025
Si       3.73695621       2.09010214       1.25736226
Si       3.73695621       4.60527698       1.25736226
Si       3.73695621       2.09010214       9.02839025
Si       2.45716193       6.69537912       9.05055438
Si       2.45716193       0.00000000       1.23519813
18
Lattice="5.8887979427920625 -9.505602783248496e-25 6.438391771021242e-39 1.0328396828075682e-24 6.574408757882014 -7.321641827720596e-16 1.4019331789621521e-39 1.1594535739962625e-15 10.411219109868929" Properties=species:S:1:pos:R:3 unique_starting_index=81 config_type=initial n_minim_iter=5 stress="-0.0021653418109453693 1.1719925532918983e-16 -9.516414269390774e-17 1.1719925532918983e-16 -0.00045387896975105036 4.152131586734049e-17 -9.516414269390774e-17 4.152131586734049e-17 -0.006306391591012005" pbc="T T T"
Si       2.08599664       2.07981826       3.49452707
Si       2.08599664       4.49459049       6.91669204
Si       2.08599664       2.07981826       6.91669204
Si       2.08599664       4.49459049       3.49452707
Si       5.70139477       2.09242262       2.67883019
Si       5.70139477       4.48198614       7.73238892
Si       5.70139477       2.09242262       7.73238892
Si       5.70139477       4.48198614       2.67883019
Si       4.10442588       5.42990030       4.04139920
Si       4.10442588       1.14450845       6.36981991
Si       4.10442588       5.42990030       6.36981991
Si       4.10442588       1.14450845       4.04139920
Si       3.77069766       4.51752638       9.14077023
Si       3.77069766       2.05688238       1.27044888
Si       3.77069766       4.51752638       1.27044888
Si       3.77069766       2.05688238       9.14077023
Si       2.46858852       6.57440876       9.14594455
Si       2.46858852       0.00000000       1.26527456
18
Lattice="5.881096036104371 -9.47180631610882e-25 6.536551829203984e-39 1.0179072574793658e-24 6.467394914543787 -7.202465022568028e-16 1.133773529165096e-39 1.2090172562714079e-15 10.856272165576621" Properties=species:S:1:pos:R:3 unique_starting_index=81 config_type=initial n_minim_iter=6 stress="0.010173666897449437 4.906871940918579e-18 -7.397277494587403e-17 4.906871940918579e-18 -0.0031593037249120657 4.388751507358761e-17 -7.397277494587403e-17 4.388751507358761e-17 0.017154964177108243" pbc="T T T"
Si       2.09164619       2.04615436       3.58774710
Si       2.09164619       4.42124055       7.26852507
Si       2.09164619       2.04615436       7.26852507
Si       2.09164619       4.42124055       3.58774710
Si       5.67501878       2.05278538       2.77703080
Si       5.67501878       4.41460954       8.07924137
Si       5.67501878       2.05278538       8.07924137
Si       5.67501878       4.41460954       2.77703080
Si       4.11735558       5.32020886       4.24002627
Si       4.11735558       1.14718605       6.61624590
Si       4.11735558       5.32020886       6.61624590
Si       4.11735558       1.14718605       4.24002627
Si       3.76289784       4.45152991       9.55788581
Si       3.76289784       2.01586500       1.29838635
Si       3.76289784       4.45152991       1.29838635
Si       3.76289784       2.01586500       9.55788581
Si       2.45558324       6.46739491       9.53588954
Si       2.45558324       0.00000000       1.32038263
18
Lattice="5.720085716544423 -9.084178589742083e-25 6.236691548772e-39 1.0339778649472985e-24 6.479996665846041 -7.216499061648199e-16 3.844021036032668e-40 1.2399860530958083e-15 11.134353959051621" Properties=species:S:1:pos:R:3 unique_starting_index=81 config_type=initial n_minim_iter=7 stress="0.00977937887541615 -5.938388403985855e-17 -3.7594100994596075e-17 -5.938388403985855e-17 0.0049761089907070484 1.7979091037836105e-17 -3.7594100994596075e-17 1.7979091037836105e-17 0.013667824123334775" pbc="T T T"
Si       2.05553181       2.04176600       3.54934986
Si       2.05553181       4.43823067       7.58500409
Si       2.05553181       2.04176600       7.58500409
Si       2.05553181       4.43823067       3.54934986
Si       5.46986270       2.04069095       2.80472936
Si       5.46986270       4.43930571       8.32962460
Si       5.46986270       2.04069095       8.32962460
Si       5.46986270       4.43930571       2.80472936
Si       4.04613144       5.29577681       4.42949650
Si       4.04613144       1.18421985       6.70485746
Si       4.04613144       5.29577681       6.70485746
Si       4.04613144       1.18421985       4.42949650
Si       3.66079599       4.47347737       9.85564697
Si       3.66079599       2.00651930       1.27870699
Si       3.66079599       4.47347737       1.27870699
Si       3.66079599       2.00651930       9.85564697
Si       2.36079788       6.47999667       9.76498112
Si       2.36079788       0.00000000       1.36937284
18
Lattice="5.649802351703177 -8.790457634307404e-25 6.035401336021713e-39 1.052744428653205e-24 6.477459406357319 -7.213673422737258e-16 8.365984989608846e-41 1.2371838094240696e-15 11.109191439809285" Properties=species:S:1:pos:R:3 unique_starting_index=81 config_type=initial n_minim_iter=8 stress="-0.00016900920344256186 -2.1163696576394828e-17 1.3974866739242084e-16 -2.1163696576394828e-17 0.0018042660355179199 1.864573043975169e-17 1.3974866739242084e-16 1.864573043975169e-17 0.002014623211769202" pbc="T T T"
Si       2.04952708       2.04797635       3.41085276
Si       2.04952708       4.42948306       7.69833868
Si       2.04952708       2.04797635       7.69833868
Si       2.04952708       4.42948306       3.41085276
Si       5.40048604       2.03175647       2.79433949
Si       5.40048604       4.44570294       8.31485195
Si       5.40048604       2.03175647       8.31485195
Si       5.40048604       4.44570294       2.79433949
Si       4.00605565       5.24424640       4.41024824
Si       4.00605565       1.23321301       6.69894320
Si       4.00605565       5.24424640       6.69894320
Si       4.00605565       1.23321301       4.41024824
Si       3.60067617       4.49671297       9.88928403
Si       3.60067617       1.98074644       1.21990741
Si       3.60067617       4.49671297       1.21990741
Si       3.60067617       1.98074644       9.88928403
Si       2.30862183       6.47745941       9.76226548
Si       2.30862183       0.00000000       1.34692596
18
Lattice="5.646063057323145 -8.579930611300074e-25 5.947594637288332e-39 1.0737860566022755e-24 6.473193944778133 -7.208923158027176e-16 2.0230934316859538e-41 1.2274811362418773e-15 11.022067074749126" Properties=species:S:1:pos:R:3 unique_starting_index=81 config_type=initial n_minim_iter=9 stress="-0.008708813316245418 -8.240508755132171e-17 3.6682666063765204e-16 -8.240508755132171e-17 -0.0044955984539246496 1.803964209998098e-17 3.6682666063765204e-16 1.803964209998098e-17 -0.010822830268156603" pbc="T T T"
Si       2.07816609       2.04491756       3.25742837
Si       2.07816609       4.42827638       7.76463871
Si       2.07816609       2.04491756       7.76463871
Si       2.07816609       4.42827638       3.25742837
Si       5.40132837       2.02807729       2.76651860
Si       5.40132837       4.44511665       8.25554847
Si       5.40132837       2.02807729       8.25554847
Si       5.40132837       4.44511665       2.76651860
Si       3.99190637       5.21706327       4.34783367
Si       3.99190637       1.25613068       6.67423341
Si       3.99190637       5.21706327       6.67423341
Si       3.99190637       1.25613068       4.34783367
Si       3.59098895       4.51410475       9.84341384
Si       3.59098895       1.95908920       1.17865324
Si       3.59098895       4.51410475       1.17865324
Si       3.59098895       1.95908920       9.84341384
Si       2.27587375       6.47319394       9.71137946
Si       2.27587375       0.00000000       1.31068762
18
Lattice="5.684137461900796 -8.392623273898887e-25 5.953036674679875e-39 1.1026592272282812e-24 6.487702954972469 -7.225081230917102e-16 3.7056791669554665e-42 1.231211342223097e-15 11.0555621561103" Properties=species:S:1:pos:R:3 unique_starting_index=81 config_type=initial n_minim_iter=10 stress="-0.005758243350427165 -1.2615059347094783e-16 2.241164348116687e-16 -1.2615059347094783e-16 -0.0033544924296068715 3.657202492572644e-17 2.241164348116687e-16 3.657202492572644e-17 -0.010987421234906536" pbc="T T T"
Si       2.14365562       2.03240247       3.10343736
Si       2.14365562       4.45530049       7.95212480
Si       2.14365562       2.03240247       7.95212480
Si       2.14365562       4.45530049       3.10343736
Si       5.44212657       2.03507144       2.75637173
Si       5.44212657       4.45263152       8.29919043
Si       5.44212657       2.03507144       8.29919043
Si       5.44212657       4.45263152       2.75637173
Si       3.98226665       5.23498636       4.32756034
Si       3.98226665       1.25271659       6.72800182
Si       3.98226665       5.23498636       6.72800182
Si       3.98226665       1.25271659       4.32756034
Si       3.62187830       4.54502829       9.87946663
Si       3.62187830       1.94267467       1.17609552
Si       3.62187830       4.54502829       1.17609552
Si       3.62187830       1.94267467       9.87946663
Si       2.23929385       6.48770295       9.77923561
Si       2.23929385       0.00000000       1.27632654
18
Lattice="5.705261700763977 -8.35573195520403e-25 5.968963361843484e-39 1.1127344177640102e-24 6.503389850604563 -7.242551065154196e-16 2.065662423900156e-42 1.2348585328721147e-15 11.088311808044645" Properties=species:S:1:pos:R:3 unique_starting_index=81 config_type=initial n_minim_iter=11 stress="-0.0018242910990433976 -1.3006980190977195e-16 2.3760676469184497e-16 -1.3006980190977195e-16 -0.00045359961254566426 3.8896007518401357e-17 2.3760676469184497e-16 3.8896007518401357e-17 -0.004565024339885712" pbc="T T T"
Si       2.16531736       2.02568042       3.08887809
Si       2.16531736       4.47770943       7.99943372
Si       2.16531736       2.02568042       7.99943372
Si       2.16531736       4.47770943       3.08887809
Si       5.46660616       2.04383812       2.76110978
Si       5.46660616       4.45955173       8.32720203
Si       5.46660616       2.04383812       8.32720203
Si       5.46660616       4.45955173       2.76110978
Si       3.97288228       5.27522012       4.32771280
Si       3.97288228       1.22816973       6.76059901
Si       3.97288228       5.27522012       6.76059901
Si       3.97288228       1.22816973       4.32771280
Si       3.64939374       4.55763695       9.88946713
Si       3.64939374       1.94575290       1.19884467
Si       3.64939374       4.55763695       1.19884467
Si       3.64939374       1.94575290       9.88946713
Si       2.23197317       6.50338985       9.82186354
Si       2.23197317       0.00000000       1.26644826
18
Lattice="5.69161950319428 -8.2685275312309655e-25 6.013108680447369e-39 1.1194789046252729e-24 6.5032034266136 -7.242343452615734e-16 1.0716835363560138e-42 1.2444694545870276e-15 11.174612298263158" Properties=species:S:1:pos:R:3 unique_starting_index=81 config_type=initial n_minim_iter=12 stress="0.001366725791308198 -1.0696529494142731e-16 1.7118473487787397e-16 -1.0696529494142731e-16 0.0001382819577206265 -1.1802927854385763e-18 1.7118473487787397e-16 -1.1802927854385763e-18 0.001435728801674326" pbc="T T T"
Si       2.16458332       2.01287618       3.10296415
Si       2.16458332       4.49032725       8.07164815
Si       2.16458332       2.01287618       8.07164815
Si       2.16458332       4.49032725       3.10296415
Si       5.44651995       2.04360624       2.77975617
Si       5.44651995       4.45959718       8.39485612
Si       5.44651995       2.04360624       8.39485612
Si       5.44651995       4.45959718       2.77975617
Si       3.94891896       5.30785592       4.37261767
Si       3.94891896       1.19534750       6.80199463
Si       3.94891896       5.30785592       6.80199463
Si       3.94891896       1.19534750       4.37261767
Si       3.66357778       4.55724227       9.95316537
Si       3.66357778       1.94596115       1.22144692
Si       3.66357778       4.55724227       1.22144692
Si       3.66357778       1.94596115       9.95316537
Si       2.21488473       6.50320343       9.90196901
Si       2.21488473       0.00000000       1.27264329
18
Lattice="5.653444204865186 -8.092243343038401e-25 6.048039277577601e-39 1.1340108206423654e-24 6.522615896040052 -7.263962301301086e-16 2.9949032465689113e-43 1.2523240531342642e-15 11.245142027378185" Properties=species:S:1:pos:R:3 unique_starting_index=81 config_type=initial n_minim_iter=13 stress="0.002772717630679971 -1.194112456144263e-16 1.396254811387176e-16 -1.194112456144263e-16 0.0019771751169619795 1.6934284442861637e-17 1.396254811387176e-16 1.6934284442861637e-17 0.004954870690110643" pbc="T T T"
Si       2.14874321       2.00481897       3.08342017
Si       2.14874321       4.51779692       8.16172185
Si       2.14874321       2.00481897       8.16172185
Si       2.14874321       4.51779692       3.08342017
Si       5.40298841       2.04411603       2.82215728
Si       5.40298841       4.47849986       8.42298474
Si       5.40298841       2.04411603       8.42298474
Si       5.40298841       4.47849986       2.82215728
Si       3.89166820       5.36029603       4.41369576
Si       3.89166820       1.16231986       6.83144627
Si       3.89166820       5.36029603       6.83144627
Si       3.89166820       1.16231986       4.41369576
Si       3.68819167       4.58331247      10.02219735
Si       3.68819167       1.93930342       1.22294467
Si       3.68819167       4.58331247       1.22294467
Si       3.68819167       1.93930342      10.02219735
Si       2.17982797       6.52261590       9.98301488
Si       2.17982797       0.00000000       1.26212715
18
Lattice="5.633955353928045 -7.958978320922722e-25 6.055617517054503e-39 1.143612180292195e-24 6.516173143678598 -7.256787279650915e-16 7.192663404613067e-44 1.254258421542159e-15 11.262511531242392" Properties=species:S:1:pos:R:3 unique_starting_index=81 config_type=initial n_minim_iter=14 stress="0.0034185591980289112 -1.2861880726535051e-16 5.773077987896951e-17 -1.2861880726535051e-16 0.005588674947861686 3.2712081043825095e-17 5.773077987896951e-17 3.2712081043825095e-17 0.005321531568759805" pbc="T T T"
Si       2.13068197       2.00092512       3.02699179
Si       2.13068197       4.51524803       8.23551974
Si       2.13068197       2.00092512       8.23551974
Si       2.13068197       4.51524803       3.02699179
Si       5.38256591       2.03352965       2.88424788
Si       5.38256591       4.48264349       8.37826365
Si       5.38256591       2.03352965       8.37826365
Si       5.38256591       4.48264349       2.88424788
Si       3.84292759       5.35200453       4.42564342
Si       3.84292759       1.16416861       6.83686811
Si       3.84292759       5.35200453       6.83686811
Si       3.84292759       1.16416861       4.42564342
Si       3.73057737       4.60656291      10.07530193
Si       3.73057737       1.90961023       1.18720960
Si       3.73057737       4.60656291       1.18720960
Si       3.73057737       1.90961023      10.07530193
Si       2.15766601       6.51617314      10.02833247
Si       2.15766601       0.00000000       1.23417906
18
Lattice="5.653112816921139 -7.929229644577066e-25 6.016092535308485e-39 1.1463928173005616e-24 6.488590681163869 -7.226069854145918e-16 3.1983665662481005e-44 1.2460250860431206e-15 11.1885809644581" Properties=species:S:1:pos:R:3 unique_starting_index=81 config_type=initial n_minim_iter=15 stress="0.002068112153784059 -1.5351932622550548e-16 -4.111883275111958e-17 -1.5351932622550548e-16 0.0035449002498839323 3.6980801477165295e-17 -4.111883275111958e-17 3.6980801477165295e-17 -2.9970519596603285e-05" pbc="T T T"
Si       2.12857922       1.99263348       2.99638503
Si       2.12857922       4.49595720       8.19219593
Si       2.12857922       1.99263348       8.19219593
Si       2.12857922       4.49595720       2.99638503
Si       5.40244562       2.02284909       2.90409717
Si       5.40244562       4.46574159       8.28448379
Si       5.40244562       2.02284909       8.28448379
Si       5.40244562       4.46574159       2.90409717
Si       3.83056824       5.32587483       4.39035181
Si       3.83056824       1.16271585       6.79822916
Si       3.83056824       5.32587483       6.79822916
Si       3.83056824       1.16271585       4.39035181
Si       3.77668727       4.60105165      10.01752028
Si       3.77668727       1.88753904       1.17106068
Si       3.77668727       4.60105165       1.17106068
Si       3.77668727       1.88753904      10.01752028
Si       2.16454853       6.48859068       9.97665448
Si       2.16454853       0.00000000       1.21192648
18
Lattice="5.636755752636777 -7.752460892743413e-25 6.052337043034915e-39 1.1493622638782857e-24 6.398912626858473 -7.126199186286351e-16 8.220600643705904e-45 1.2540606004539624e-15 11.26073521286268" Properties=species:S:1:pos:R:3 unique_starting_index=81 config_type=initial n_minim_iter=16 stress="-0.0002397039625719556 -1.1097729116720143e-16 -2.1320760372003663e-17 -1.1097729116720143e-16 0.0005410762799383202 6.884198027748055e-18 -2.1320760372003663e-17 6.884198027748055e-18 -0.0017729766641499153" pbc="T T T"
Si       2.11905797       1.96102821       2.93319417
Si       2.11905797       4.43788442       8.32754105
Si       2.11905797       1.96102821       8.32754105
Si       2.11905797       4.43788442       2.93319417
Si       5.36822380       1.98659944       2.97568914
Si       5.36822380       4.41231319       8.28504607
Si       5.36822380       1.98659944       8.28504607
Si       5.36822380       4.41231319       2.97568914
Si       3.78335334       5.22863845       4.43089119
Si       3.78335334       1.17027418       6.82984402
Si       3.78335334       5.22863845       6.82984402
Si       3.78335334       1.17027418       4.43089119
Si       3.82914571       4.56929904      10.10648616
Si       3.82914571       1.82961359       1.15424905
Si       3.82914571       4.56929904       1.15424905
Si       3.82914571       1.82961359      10.10648616
Si       2.14768050       6.39891263      10.05948361
Si       2.14768050       0.00000000       1.20125161
18
Lattice="5.68291321901412 -7.67075999555975e-25 6.022620693846e-39 1.1531556125131175e-24 6.299087772254277 -7.015028454767688e-16 2.1349968142836754e-45 1.2480062337715168e-15 11.206370519427642" Properties=species:S:1:pos:R:3 unique_starting_index=81 config_type=initial n_minim_iter=17 stress="-0.002755117579777799 -1.105639005867801e-16 -1.8265875941731865e-17 -1.105639005867801e-16 -0.005344368452111454 -4.662454866084531e-17 -1.8265875941731865e-17 -4.662454866084531e-17 -0.0058475949209760986" pbc="T T T"
Si       2.11591125       1.92977248       2.93476789
Si       2.11591125       4.36931530       8.27160263
Si       2.11591125       1.92977248       8.27160263
Si       2.11591125       4.36931530       2.93476789
Si       5.40378295       1.95526795       3.02662750
Si       5.40378295       4.34381982       8.17974302
Si       5.40378295       1.95526795       8.17974302
Si       5.40378295       4.34381982       3.02662750
Si       3.76483288       5.12687023       4.40207005
Si       3.76483288       1.17221754       6.80430047
Si       3.76483288       5.12687023       6.80430047
Si       3.76483288       1.17221754       4.40207005
Si       3.92854744       4.51789444      10.03368315
Si       3.92854744       1.78119333       1.17268737
Si       3.92854744       4.51789444       1.17268737
Si       3.92854744       1.78119333      10.03368315
Si       2.18597358       6.29908777      10.01258197
Si       2.18597358       0.00000000       1.19378855
18
Lattice="5.688428585489228 -7.522194543660518e-25 6.066451317174412e-39 1.1617405151288808e-24 6.2376115266747 -6.946564952174029e-16 5.46902769975649e-46 1.2575674769697826e-15 11.292224925444721" Properties=species:S:1:pos:R:3 unique_starting_index=81 config_type=initial n_minim_iter=18 stress="-0.0003519699543269762 -8.967309083903618e-17 9.42104314723744e-18 -8.967309083903618e-17 -0.003273171858348001 -2.2271849782515593e-17 9.42104314723744e-18 -2.2271849782515593e-17 -0.0011467994492631818" pbc="T T T"
Si       2.11307532       1.89792344       2.91434572
Si       2.11307532       4.33968809       8.37787921
Si       2.11307532       1.89792344       8.37787921
Si       2.11307532       4.33968809       2.91434572
Si       5.38733501       1.93117447       3.08590213
Si       5.38733501       4.30643706       8.20632280
Si       5.38733501       1.93117447       8.20632280
Si       5.38733501       4.30643706       3.08590213
Si       3.72101062       5.05901218       4.45259437
Si       3.72101062       1.17859934       6.83963056
Si       3.72101062       5.05901218       6.83963056
Si       3.72101062       1.17859934       4.45259437
Si       4.00058687       4.49414151      10.08764063
Si       4.00058687       1.74347002       1.20458429
Si       4.00058687       4.49414151       1.20458429
Si       4.00058687       1.74347002      10.08764063
Si       2.19975766       6.23761153      10.07789051
Si       2.19975766       0.00000000       1.21433442
18
Lattice="5.684549027038936 -7.38640164313343e-25 6.071717941591395e-39 1.1770277789476124e-24 6.250066261568633 -6.960435265279013e-16 2.253026849627554e-46 1.2589924512263751e-15 11.305020365938317" Properties=species:S:1:pos:R:3 unique_starting_index=81 config_type=initial n_minim_iter=19 stress="-0.001084888138963894 -5.3278578530985573e-17 1.1139438209057197e-16 -5.3278578530985573e-17 0.00017594393227813261 1.1021617275155515e-17 1.1139438209057197e-16 1.1021617275155515e-17 -0.0008500286035235268" pbc="T T T"
Si       2.11017960       1.89790906       2.92213398
Si       2.11017960       4.35215720       8.38288639
Si       2.11017960       1.89790906       8.38288639
Si       2.11017960       4.35215720       2.92213398
Si       5.38374472       1.93370726       3.08134744
Si       5.38374472       4.31635900       8.22367293
Si       5.38374472       1.93370726       8.22367293
Si       5.38374472       4.31635900       3.08134744
Si       3.71364676       5.06182958       4.46287514
Si       3.71364676       1.18823668       6.84214523
Si       3.71364676       5.06182958       6.84214523
Si       3.71364676       1.18823668       4.46287514
Si       3.99648683       4.50089220      10.08917980
Si       3.99648683       1.74917406       1.21584057
Si       3.99648683       4.50089220       1.21584057
Si       3.99648683       1.74917406      10.08917980
Si       2.21339412       6.25006626      10.07332442
Si       2.21339412       0.00000000       1.23169595
18
Lattice="5.7029296165364896 -7.319790664704945e-25 6.085468251689498e-39 1.1862650150129694e-24 6.238155081400812 -6.947170286153745e-16 9.080861140443384e-47 1.262038734085324e-15 11.33237421522254" Properties=species:S:1:pos:R:3 unique_starting_index=81 config_type=initial n_minim_iter=20 stress="0.0014274475571700049 -5.786458864474455e-17 -6.499009123209672e-17 -5.786458864474455e-17 0.0021209303073542493 -3.284350246452597e-17 -6.499009123209672e-17 -3.284350246452597e-17 0.0025941952114764445" pbc="T T T"
Si       2.11445617       1.88714521       2.92036086
Si       2.11445617       4.35100987       8.41201336
Si       2.11445617       1.88714521       8.41201336
Si       2.11445617       4.35100987       2.92036086
Si       5.40519029       1.92559492       3.08614993
Si       5.40519029       4.31256016       8.24622428
Si       5.40519029       1.92559492       8.24622428
Si       5.40519029       4.31256016       3.08614993
Si       3.71054753       5.04334713       4.47689726
Si       3.71054753       1.19480796       6.85547696
Si       3.71054753       5.04334713       6.85547696
Si       3.71054753       1.19480796       4.47689726
Si       4.01245614       4.49354350      10.10966453
Si       4.01245614       1.74461158       1.22270969
Si       4.01245614       4.49354350       1.22270969
Si       4.01245614       1.74461158      10.10966453
Si       2.24168905       6.23815508      10.08320671
Si       2.24168905       0.00000000       1.24916751
18
Lattice="5.7146699888943 -7.255715362737609e-25 6.074711294769015e-39 1.1938974017994954e-24 6.225951743604262 -6.933579943395961e-16 3.689297432075391e-47 1.2599276093416096e-15 11.313417542210258" Properties=species:S:1:pos:R:3 unique_starting_index=81 config_type=initial n_minim_iter=21 stress="0.0005645259703270099 -1.3201244883768663e-16 9.101929091964863e-18 -1.3201244883768663e-16 0.0017584215337593796 -1.72805439657563e-17 9.101929091964863e-18 -1.72805439657563e-17 0.002055440539493382" pbc="T T T"
Si       2.11338463       1.87668466       2.91171162
Si       2.11338463       4.34926708       8.40170592
Si       2.11338463       1.87668466       8.40170592
Si       2.11338463       4.34926708       2.91171162
Si       5.42193365       1.91524520       3.08176379
Si       5.42193365       4.31070654       8.23165376
Si       5.42193365       1.91524520       8.23165376
Si       5.42193365       4.31070654       3.08176379
Si       3.70469570       5.02762523       4.47053489
Si       3.70469570       1.19832652       6.84288265
Si       3.70469570       5.02762523       6.84288265
Si       3.70469570       1.19832652       4.47053489
Si       4.02168779       4.48457919      10.09401758
Si       4.02168779       1.74137255       1.21939996
Si       4.02168779       4.48457919       1.21939996
Si       4.02168779       1.74137255      10.09401758
Si       2.27095935       6.22595174      10.05506435
Si       2.27095935       0.00000000       1.25835320
