24
Lattice="8.493026536957036 -1.9877459733775345e-12 1.2535965596247532e-14 4.24651326848024 7.355176736019176 -1.897113031863853e-14 4.246513268479071 2.4517255786724492 15.186028694174773" Properties=species:S:1:pos:R:3 unique_starting_index=24 config_type=initial n_minim_iter=1 energy=-3909.294633166769 free_energy=-3909.294633166769 pbc="T T T"
Si       9.47377674       4.34323330      16.20819164
Si       8.48781349       6.03291468      16.20819164
Si       7.51748811       4.33420477      16.20819164
Si       9.34692636       3.90831563      10.72646512
Si       8.92788843       6.14051786      10.72646512
Si       7.20426355       4.66151925      10.72646512
Si      10.15609093       3.92183500       2.63030059
Si       8.51159803       6.83451525       2.63030059
Si       6.81138938       3.95400249       2.63030059
Si       9.47260066       5.45578163       3.49051989
Si       7.52490641       5.47562200       3.49051989
Si       8.48157127       3.77894911       3.49051989
Si      10.90380958       7.22623135      11.58959484
Si       5.27604751       5.82986042      11.58959484
Si       9.29922125       1.65426097      11.58959484
Si      10.83784925       3.40752857      12.41981340
Si       8.61612130       7.68208849      12.41981340
Si       6.02510779       3.62073568      12.41981340
Si       9.78717831       9.28276686      11.00672593
Si       4.05335115       3.83456162      11.00672593
Si      11.63854888       1.59302426      11.00672593
Si       4.25222699       1.33051537       2.60905907
Si       5.21465208       3.01727892       2.60905907
Si       3.27265946       3.00738172       2.60905907
24
Lattice="8.496145807218197 -1.9911508122194405e-12 1.2490032631084128e-14 4.248072903610821 7.357878103306609 -1.9047195101119966e-14 4.248072903609652 2.4526260344349238 15.203805525296605" Properties=species:S:1:pos:R:3 unique_starting_index=24 config_type=initial n_minim_iter=2 stress="0.0008426337559512552 -8.791188501080246e-16 7.831440925714839e-17 -8.791188501080246e-16 0.0008426337559520608 -1.5483102572231645e-16 7.831440925714839e-17 -1.5483102572231645e-16 0.0003642986615226546" pbc="T T T"
Si       9.47717284       4.34500312      16.22677787
Si       8.49082127       6.03497088      16.22677787
Si       7.52044204       4.33578149      16.22677787
Si       9.35021321       3.90988513      10.73907533
Si       8.93112432       6.14257961      10.73907533
Si       7.20709862       4.66329074      10.73907533
Si      10.16031247       3.92317505       2.63356898
Si       8.51456528       6.83750118       2.63356898
Si       6.81355841       3.95507924       2.63356898
Si       9.47590480       5.45786824       3.49467749
Si       7.52768582       5.47744016       3.49467749
Si       8.48484553       3.78044707       3.49467749
Si      10.90781948       7.22876427      11.60311678
Si       5.27808753       5.83206664      11.60311678
Si       9.30252914       1.65492457      11.60311678
Si      10.84189943       3.40873403      12.43447614
Si       8.61929079       7.68499332      12.43447614
Si       6.02724593       3.62202813      12.43447614
Si       9.79067619       9.28634926      11.01954014
Si       4.05473830       3.83579968      11.01954014
Si      11.64302165       1.59360654      11.01954014
Si       4.25368817       1.33040043       2.61217684
Si       5.21714031       3.01860180       2.61217684
Si       3.27338896       3.00887515       2.61217684
24
Lattice="8.492879329041557 -1.992441696378208e-12 1.248440039151486e-14 4.246439664522502 7.35504925022473 -1.913236923924755e-14 4.246439664521332 2.45168308340763 15.208350424834407" Properties=species:S:1:pos:R:3 unique_starting_index=24 config_type=initial n_minim_iter=3 stress="-0.0003307282204337105 -3.6321902684588373e-16 -1.2731072309209609e-17 -3.6321902684588373e-16 -0.00033072822043249975 5.2534846577160126e-17 -1.2731072309209609e-17 5.2534846577160126e-17 0.00042306089104451015" pbc="T T T"
Si       9.47340476       4.34351437      16.23138245
Si       8.48746165       6.03245200      16.23138245
Si       7.51777031       4.33413140      16.23138245
Si       9.34649116       3.90849852      10.74234220
Si       8.92765323       6.14004952      10.74234220
Si       7.20449233       4.66154973      10.74234220
Si      10.15670492       3.92166468       2.63458758
Si       8.51114411       6.83513214       2.63458758
Si       6.81078769       3.95330095       2.63458758
Si       9.47207249       5.45582062       3.49572839
Si       7.52484231       5.47514510       3.49572839
Si       8.48172191       3.77913205       3.49572839
Si      10.90362183       7.22587806      11.60654255
Si       5.27615293       5.82987447      11.60654255
Si       9.29886195       1.65434524      11.60654255
Si      10.83779395       3.40738053      12.43829234
Si       8.61598274       7.68211462      12.43829234
Si       6.02486002       3.62060262      12.43829234
Si       9.78682168       9.28293664      11.02278025
Si       4.05308802       3.83416788      11.02278025
Si      11.63872702       1.59299325      11.02278025
Si       4.25196366       1.32952999       2.61290723
Si       5.21548991       3.01754355       2.61290723
Si       3.27186415       3.00797498       2.61290723
24
Lattice="8.504694535563214 -2.005640315227687e-12 1.2501351317618003e-14 4.252347267783343 7.36528151922344 -1.9167477757363272e-14 4.252347267782164 2.4550938397405293 15.16481982635131" Properties=species:S:1:pos:R:3 unique_starting_index=24 config_type=initial n_minim_iter=4 stress="0.00019440668535158597 2.358555314000189e-16 1.6489726108226047e-16 2.358555314000189e-16 0.00019440668535310814 1.971038715239937e-16 1.6489726108226047e-16 1.971038715239937e-16 -0.000743861331286321" pbc="T T T"
Si       9.48421344       4.35300234      16.18157798
Si       8.49747089       6.03706861      16.18157798
Si       7.53239800       4.34049136      16.18157798
Si       9.35711446       3.91612285      10.71278381
Si       8.93936912       6.14543740      10.71278381
Si       7.21759876       4.66900205      10.71278381
Si      10.17313096       3.92922826       2.63192181
Si       8.52001125       6.84557572       2.63192181
Si       6.82094012       3.95575833       2.63192181
Si       9.48217559       5.46463697       3.48563268
Si       7.53578599       5.47948647       3.48563268
Si       8.49612075       3.78643887       3.48563268
Si      10.91868947       7.23379049      11.57248523
Si       5.28539716       5.83896721      11.57248523
Si       9.30999571       1.65780461      11.57248523
Si      10.85403033       3.41130849      12.40456673
Si       8.62809325       7.69421175      12.40456673
Si       6.03195876       3.62504206      12.40456673
Si       9.79876022       9.29897646      10.99019683
Si       4.05685826       3.83648705      10.99019683
Si      11.65846385       1.59509879      10.99019683
Si       4.25616026       1.32958253       2.60279250
Si       5.22516131       3.02115164       2.60279250
Si       3.27571896       3.01454661       2.60279250
24
Lattice="8.503809424400682 -2.016253550063796e-12 1.2498057146323815e-14 4.251904712202085 7.364514990471506 -1.9168147414479533e-14 4.251904712200901 2.454838330156547 15.189357576373107" Properties=species:S:1:pos:R:3 unique_starting_index=24 config_type=initial n_minim_iter=5 stress="-3.1573654779629684e-05 5.378059773866448e-16 4.801943290386668e-16 5.378059773866448e-16 -3.15736547790676e-05 -6.395782890796037e-17 4.801943290386668e-16 -6.395782890796037e-17 0.00032574214178633225" pbc="T T T"
Si       9.48267844       4.35409513      16.20436475
Si       8.49552179       6.03519286      16.20436475
Si       7.53322677       4.33974126      16.20436475
Si       9.35437682       3.91729076      10.73118472
Si       8.93795628       6.14248259      10.73118472
Si       7.21909390       4.66925590      10.73118472
Si      10.17353213       3.93099383       2.63953644
Si       8.51651141       6.84504036       2.63953644
Si       6.82138346       3.95299506       2.63953644
Si       9.47962510       5.46486527       3.49156395
Si       7.53509329       5.47716352       3.49156395
Si       8.49670860       3.78700045       3.49156395
Si      10.91728838       7.23146879      11.59043420
Si       5.28633813       5.83891468      11.59043420
Si       9.30780049       1.65864578      11.59043420
Si      10.85374447       3.41020338      12.42609945
Si       8.62742301       7.69451674      12.42609945
Si       6.03025953       3.62430912      12.42609945
Si       9.79651227       9.30021058      11.00718541
Si       4.05514324       3.83392321      11.00718541
Si      11.65977149       1.59489546      11.00718541
Si       4.25471149       1.33137389       2.60579524
Si       5.22344922       3.01900129       2.60579524
Si       3.27755215       3.01413907       2.60579524
24
Lattice="8.504063994779717 -2.0389747248783116e-12 1.2479973636514386e-14 4.252031997391624 7.364735454886788 -1.9156341693389244e-14 4.252031997390426 2.4549118182949674 15.154218958540978" Properties=species:S:1:pos:R:3 unique_starting_index=24 config_type=initial n_minim_iter=6 stress="-1.5158160661439913e-05 7.069968136313464e-16 6.961473837067423e-16 7.069968136313464e-16 -1.5158160661123612e-05 -6.927843528675793e-17 6.961473837067423e-16 -6.927843528675793e-17 6.187523688508545e-05" pbc="T T T"
Si       9.48505383       4.35449981      16.15998332
Si       8.49449277       6.03704767      16.15998332
Si       7.53264411       4.33792270      16.15998332
Si       9.35126335       3.92031996      10.70951229
Si       8.93739879       6.13827164      10.70951229
Si       7.22352858       4.67087858      10.70951229
Si      10.18223152       3.93369726       2.63900128
Si       8.51032962       6.85122254       2.63900128
Si       6.81962956       3.94455038       2.63900128
Si       9.47998336       5.46796193       3.48614747
Si       7.53274153       5.47592546       3.48614747
Si       8.49946582       3.78558279       3.48614747
Si      10.91640943       7.22830251      11.56147605
Si       5.29002883       5.83973663      11.56147605
Si       9.30575245       1.66143104      11.56147605
Si      10.85561756       3.40831896      12.40049029
Si       8.62862756       7.69708110      12.40049029
Si       6.02794560       3.62407012      12.40049029
Si       9.79457523       9.30486665      10.98000784
Si       4.05258863       3.82991764      10.98000784
Si      11.66502686       1.59468588      10.98000784
Si       4.25368403       1.33551782       2.59599917
Si       5.22062878       3.01603952       2.59599917
Si       3.28178192       3.01317739       2.59599917
24
Lattice="8.504369348617939 -2.0489856412880902e-12 1.2490189148919901e-14 4.252184674310743 7.364999899067828 -1.9150640980138966e-14 4.252184674309541 2.454999966355311 15.131259676595468" Properties=species:S:1:pos:R:3 unique_starting_index=24 config_type=initial n_minim_iter=7 stress="2.2297837643645598e-05 2.7739714348195414e-16 8.709221865960825e-16 2.7739714348195414e-16 2.229783764440282e-05 -9.257309655262427e-17 8.709221865960825e-16 -9.257309655262427e-17 2.4034666213605242e-05" pbc="T T T"
Si       9.48737375       4.35237693      16.13140751
Si       8.49578198       6.04011822      16.13140751
Si       7.52995104       4.33750392      16.13140751
Si       9.35106356       3.92076738      10.69535047
Si       8.93772192       6.13787491      10.69535047
Si       7.22432130       4.67135678      10.69535047
Si      10.18243395       3.93601213       2.63816049
Si       8.50883438       6.85024041       2.63816049
Si       6.82183844       3.94374653       2.63816049
Si       9.47967069       5.47028736       3.48166505
Si       7.53149469       5.47449195       3.48166505
Si       8.50194140       3.78521975       3.48166505
Si      10.91575068       7.22743992      11.54257126
Si       5.29171594       5.83959743      11.54257126
Si       9.30564016       1.66296172      11.54257126
Si      10.85610211       3.40723074      12.38310555
Si       8.62993842       7.69804484      12.38310555
Si       6.02706625       3.62472349      12.38310555
Si       9.79511052       9.30590157      10.96253725
Si       4.05203542       3.82986376      10.96253725
Si      11.66596083       1.59423373      10.96253725
Si       4.25477622       1.33419818       2.59096024
Si       5.22153088       3.01764521       2.59096024
Si       3.28024565       3.01315578       2.59096024
24
Lattice="8.505245703822025 -2.0652619869458596e-12 1.2502731522533241e-14 4.252622851912802 7.3657588449373 -1.9178613375773855e-14 4.25262285191159 2.455252948311796 15.11887133122829" Properties=species:S:1:pos:R:3 unique_starting_index=24 config_type=initial n_minim_iter=8 stress="6.113489860162806e-05 1.0024303125004541e-15 3.0619721513439097e-16 1.0024303125004541e-15 6.113489860334785e-05 1.3607299918428027e-16 3.0619721513439097e-16 1.3607299918428027e-16 -5.0689128145066094e-05" pbc="T T T"
Si       9.48317330       4.35137601      16.11164250
Si       8.50050175       6.03698098      16.11164250
Si       7.53206080       4.34315997      16.11164250
Si       9.35252440       3.92042349      10.69155109
Si       8.93904202       6.13931198      10.69155109
Si       7.22416941       4.67178149      10.69155109
Si      10.18423651       3.94011625       2.63769076
Si       8.50613154       6.84974942       2.63769076
Si       6.82536779       3.94165130       2.63769076
Si       9.47822000       5.47240135       3.48573417
Si       7.53214197       5.47217863       3.48573417
Si       8.50537387       3.78693698       3.48573417
Si      10.91449609       7.22671278      11.52946078
Si       5.29472566       5.83887450      11.52946078
Si       9.30651409       1.66592968      11.52946078
Si      10.85663809       3.40438451      12.37643929
Si       8.63388804       7.69993213      12.37643929
Si       6.02520970       3.62720031      12.37643929
Si       9.79895461       9.30582237      10.95149461
Si       4.05193468       3.83323243      10.95149461
Si      11.66484655       1.59246215      10.95149461
Si       4.25833218       1.33323116       2.58408527
Si       5.22146672       3.02120826       2.58408527
Si       3.27806839       3.01131869       2.58408527
24
Lattice="8.499521420531428 -2.0974155187037815e-12 1.2437286848066025e-14 4.249760710267536 7.360801470189174 -1.9216960312594206e-14 4.249760710266303 2.45360049006241 15.089076836470353" Properties=species:S:1:pos:R:3 unique_starting_index=24 config_type=initial n_minim_iter=9 stress="3.3706251912427664e-05 9.417856028158657e-16 7.21951344815921e-16 9.417856028158657e-16 3.370625191442037e-05 -1.2567627869744062e-16 7.21951344815921e-16 -1.2567627869744062e-16 -7.851458967770419e-06" pbc="T T T"
Si       9.47842763       4.34594395      16.06761505
Si       8.49613031       6.03558714      16.06761505
Si       7.52400505       4.34007112      16.06761505
Si       9.34491802       3.91947645      10.67806829
Si       8.93221681       6.13319818      10.67806829
Si       7.22142816       4.66892758      10.67806829
Si      10.18179556       3.94435442       2.63793136
Si       8.49223308       6.84551641       2.63793136
Si       6.82453434       3.93173138       2.63793136
Si       9.47197153       5.47160758       3.48907945
Si       7.52450507       5.46716418       3.48907945
Si       8.50208639       3.78283045       3.48907945
Si      10.90514667       7.21847533      11.50065768
Si       5.29508565       5.83489638      11.50065768
Si       9.29833068       1.66823050      11.50065768
Si      10.85058025       3.39654202      12.35866041
Si       8.63226020       7.69860714      12.35866041
Si       6.01572254       3.62645306      12.35866041
Si       9.79506646       9.30100615      10.92668603
Si       4.04660116       3.83227332      10.92668603
Si      11.65689537       1.58832274      10.92668603
Si       4.25489271       1.33314361       2.57072701
Si       5.21753798       3.01827338       2.57072701
Si       3.27685016       3.00938375       2.57072701
24
Lattice="8.495016733817154 -2.111452268539448e-12 1.2368403432003303e-14 4.2475083669104094 7.356900297058515 -1.911667085696061e-14 4.2475083669091696 2.4523000990188524 15.083564948478132" Properties=species:S:1:pos:R:3 unique_starting_index=24 config_type=initial n_minim_iter=10 stress="-4.7795187168251715e-05 4.298728210875634e-16 1.0370534592017916e-15 4.298728210875634e-16 -4.779518716580391e-05 1.0664379164240785e-16 1.0370534592017916e-15 1.0664379164240785e-16 4.4877589881104016e-05" pbc="T T T"
Si       9.47438243       4.34308967      16.05680876
Si       8.49161542       6.03351104      16.05680876
Si       7.51905107       4.33719916      16.05680876
Si       9.33998359       3.91840893      10.67725559
Si       8.92659916       6.12945860      10.67725559
Si       7.21846619       4.66593234      10.67725559
Si      10.17629334       3.94299632       2.63825276
Si       8.48715097       6.84143039       2.63825276
Si       6.82160462       3.92937315       2.63825276
Si       9.46604791       5.47206238       3.49346690
Si       7.51806363       5.46180678       3.49346690
Si       8.50093739       3.77993071       3.49346690
Si      10.89988180       7.21364209      11.49351424
Si       5.29289441       5.83275349      11.49351424
Si       9.29227271       1.66740428      11.49351424
Si      10.84593492       3.39193836      12.35744697
Si       8.62956037       7.69688599      12.35744697
Si       6.00955364       3.62497551      12.35744697
Si       9.79188758       9.29646911      10.92148832
Si       4.04311042       3.83178884      10.92148832
Si      11.65005094       1.58554191      10.92148832
Si       4.25100576       1.33259640       2.56553764
Si       5.21545067       3.01518078       2.56553764
Si       3.27606740       3.00912239       2.56553764
24
Lattice="8.489008472680345 -2.1269879720415983e-12 1.2352942667617695e-14 4.244504236342018 7.351696990281458 -1.9072284935228373e-14 4.244504236340768 2.450565663426495 15.084251395911384" Properties=species:S:1:pos:R:3 unique_starting_index=24 config_type=initial n_minim_iter=11 stress="-3.0378384742662015e-05 -6.226956398355559e-17 1.1179627495873394e-15 -6.226956398355559e-17 -3.0378384740710902e-05 -2.973725484555595e-16 1.1179627495873394e-15 -2.973725484555595e-16 -8.83982308310267e-06" pbc="T T T"
Si       9.46837974       4.34032399      16.05256307
Si       8.48499539       6.02969540      16.05256307
Si       7.51364902       4.33337386      16.05256307
Si       9.33553669       3.91714739      10.68067149
Si       8.91789861       6.12623824      10.68067149
Si       7.21358885       4.66000763      10.68067149
Si      10.16510364       3.94143238       2.63784941
Si       8.48208371       6.83252179       2.63784941
Si       6.81983680       3.92943907       2.63784941
Si       9.46062860       5.46694216       3.50230651
Si       7.51319100       5.45967363       3.50230651
Si       8.49320454       3.77677746       3.50230651
Si      10.89672779       7.20869201      11.48990245
Si       5.28674179       5.83249708      11.48990245
Si       9.28355456       1.66220416      11.48990245
Si      10.84082772       3.38530001      12.36284207
Si       8.62584643       7.69578220      12.36284207
Si       6.00035000       3.62231104      12.36284207
Si       9.78966414       9.28968101      10.92121510
Si       4.03808428       3.83325734      10.92121510
Si      11.63927573       1.58045490      10.92121510
Si       4.24356258       1.32880472       2.55961603
Si       5.21644769       3.01063064       2.55961603
Si       3.27350117       3.01226090       2.55961603
24
Lattice="8.48419385842175 -2.1507656840463485e-12 1.2547896013437964e-14 4.24209692921274 7.3475274120240766 -1.9147359861824883e-14 4.242096929211477 2.44917580400736 15.056170947552609" Properties=species:S:1:pos:R:3 unique_starting_index=24 config_type=initial n_minim_iter=12 stress="2.4939520467227858e-05 -2.0558606143816854e-16 1.3380245880079652e-15 -2.0558606143816854e-16 2.4939520468182685e-05 -5.018405441032394e-16 1.3380245880079652e-15 -5.018405441032394e-16 8.042236080315707e-05" pbc="T T T"
Si       9.46186353       4.33489753      16.01362442
Si       8.48332372       6.02676542      16.01362442
Si       7.50739306       4.33339115      16.01362442
Si       9.33446140       3.91748670      10.66340672
Si       8.90851317       6.12513736      10.66340672
Si       7.20960573       4.65243004      10.66340672
Si      10.15709718       3.93569597       2.63528328
Si       8.48142560       6.82845620       2.63528328
Si       6.81405753       3.93090193       2.63528328
Si       9.45716872       5.46188599       3.50326165
Si       7.50967049       5.45920537       3.50326165
Si       8.48574110       3.77396273       3.50326165
Si      10.90023860       7.20366118      11.46342022
Si       5.27971399       5.83805294      11.46342022
Si       9.27262772       1.65333997      11.46342022
Si      10.83886986       3.37758297      12.34648513
Si       8.62387928       7.69794517      12.34648513
Si       5.98983116       3.61952596      12.34648513
Si       9.78741580       9.28896073      10.90078602
Si       4.03020300       3.83167036      10.90078602
Si      11.63496150       1.57442301      10.90078602
Si       4.24047254       1.32935582       2.55000325
Si       5.21270083       3.00767903       2.55000325
Si       3.27311615       3.01049183       2.55000325
24
Lattice="8.486382703458029 -2.168423336667788e-12 1.26913344882773e-14 4.243191351730896 7.34942300743043 -1.909889761093584e-14 4.2431913517296245 2.449807669142807 15.017264923617823" Properties=species:S:1:pos:R:3 unique_starting_index=24 config_type=initial n_minim_iter=13 stress="9.071440229525119e-06 2.370683219598787e-19 1.7946664643167718e-15 2.370683219598787e-19 9.071440228954258e-06 -8.926807663399232e-16 1.7946664643167718e-15 -8.926807663399232e-16 -2.546004763298585e-05" pbc="T T T"
Si       9.46354566       4.33470209      15.96658029
Si       8.48702961       6.02831991      15.96658029
Si       7.50857158       4.33582329      15.96658029
Si       9.33954385       3.91883401      10.63754686
Si       8.90918283       6.12886524      10.63754686
Si       7.21042015       4.65114604      10.63754686
Si      10.15974589       3.93483033       2.63129518
Si       8.48522859       6.83118288       2.63129518
Si       6.81417236       3.93283208       2.63129518
Si       9.45988649       5.46256628       3.49626825
Si       7.51210015       5.46121888       3.49626825
Si       8.48716020       3.77506013       3.49626825
Si      10.90610988       7.20485885      11.43055912
Si       5.28011883       5.84253879      11.43055912
Si       9.27291813       1.65144765      11.43055912
Si      10.84192505       3.37472993      12.31878362
Si       8.62920018       7.70201756      12.31878362
Si       5.98802161       3.62209779      12.31878362
Si       9.79107804       9.29331725      10.87224299
Si       4.02897672       3.83266369      10.87224299
Si      11.63909209       1.57286435      10.87224299
Si       4.24230886       1.32880542       2.54191319
Si       5.21444817       3.00954454       2.54191319
Si       3.27281575       3.01107232       2.54191319
24
Lattice="8.486207751012783 -2.202099368155979e-12 1.2757354591392223e-14 4.243103875508302 7.349271494168378 -1.901689065769214e-14 4.243103875507011 2.449757164722111 14.974071638003927" Properties=species:S:1:pos:R:3 unique_starting_index=24 config_type=initial n_minim_iter=14 stress="-5.937620081279187e-05 4.736218199282268e-16 1.037177100392524e-15 4.736218199282268e-16 -5.937620081223171e-05 -3.7917088219404606e-16 1.037177100392524e-15 -3.7917088219404606e-16 3.1162113200355886e-05" pbc="T T T"
Si       9.46387626       4.33643898      15.91125453
Si       8.48501021       6.02773777      15.91125453
Si       7.50973552       4.33436551      15.91125453
Si       9.34394885       3.91937396      10.60950151
Si       8.90616281       6.13241010      10.60950151
Si       7.20851032       4.64675820      10.60950151
Si      10.15967953       3.93237354       2.62782238
Si       8.48703951       6.83235380       2.62782238
Si       6.81190295       3.93381492       2.62782238
Si       9.46010483       5.46118265       3.49065243
Si       7.51283933       5.46209979       3.49065243
Si       8.48567782       3.77525982       3.49065243
Si      10.90833645       7.20461738      11.38994368
Si       5.27886476       5.84458779      11.38994368
Si       9.27142078       1.64933709      11.38994368
Si      10.83952479       3.36570216      12.29375545
Si       8.63786868       7.70445276      12.29375545
Si       5.98122851       3.62838734      12.29375545
Si       9.79318612       9.29460170      10.84014291
Si       4.02646041       3.83384712      10.84014291
Si      11.63897545       1.57009345      10.84014291
Si       4.24058322       1.32992684       2.53108115
Si       5.21416487       3.00748937       2.53108115
Si       3.27456227       3.01185455       2.53108115
24
Lattice="8.487542227691904 -2.2113302079354584e-12 1.2785388602898198e-14 4.2437711138478695 7.35042718487325 -1.8930149372124132e-14 4.243771113846571 2.450142394957066 14.947508572727317" Properties=species:S:1:pos:R:3 unique_starting_index=24 config_type=initial n_minim_iter=15 stress="2.0153360429869522e-05 2.2977575400688135e-16 2.155665642448496e-15 2.2977575400688135e-16 2.015336043080958e-05 -3.5144975431518843e-16 2.155665642448496e-15 -3.5144975431518843e-16 -7.392183406619491e-05" pbc="T T T"
Si       9.46666177       4.33937602      15.88459675
Si       8.48374286       6.02868158      15.88459675
Si       7.51222078       4.33279605      15.88459675
Si       9.34973242       3.92112925      10.58517449
Si       8.90441986       6.13654117      10.58517449
Si       7.20847313       4.64318322      10.58517449
Si      10.15815975       3.92674437       2.62039591
Si       8.49534336       6.83385222       2.62039591
Si       6.80912230       3.94025705       2.62039591
Si       9.46430970       5.45891545       3.48124207
Si       7.51536930       5.46687491       3.48124207
Si       8.48294641       3.77506328       3.48124207
Si      10.91147082       7.20986817      11.36489386
Si       5.27541920       5.84467684      11.36489386
Si       9.27573539       1.64630863      11.36489386
Si      10.83718130       3.35989308      12.27942232
Si       8.64674020       7.70532777      12.27942232
Si       5.97870391       3.63563279      12.27942232
Si       9.79453312       9.29732375      10.82446308
Si       4.02609849       3.83365263      10.82446308
Si      11.64199380       1.56987726      10.82446308
Si       4.24341729       1.33016407       2.53033249
Si       5.21387686       3.00982514       2.53033249
Si       3.27401792       3.01043725       2.53033249
24
Lattice="8.488340506824931 -2.263409852965569e-12 1.3076452515157263e-14 4.2441702534144286 7.351118514881738 -1.913547876630839e-14 4.2441702534131025 2.4503728382932097 14.883281502117152" Properties=species:S:1:pos:R:3 unique_starting_index=24 config_type=initial n_minim_iter=16 stress="0.0002905174532484031 -5.1404811624166246e-17 1.788170168079718e-15 -5.1404811624166246e-17 0.000290517453247639 -1.2546360418502901e-15 1.788170168079718e-15 -1.2546360418502901e-15 2.83642831506459e-05" pbc="T T T"
Si       9.46947295       4.34169515      15.80680936
Si       8.48192540       6.02995656      15.80680936
Si       7.51362191       4.33058459      15.80680936
Si       9.35392520       3.92752828      10.53738038
Si       8.89837831       6.13697271      10.53738038
Si       7.21271674       4.63773531      10.53738038
Si      10.15802339       3.92655556       2.60952964
Si       8.49717161       6.83382853       2.60952964
Si       6.80982525       3.94185221       2.60952964
Si       9.46370445       5.45782310       3.47249717
Si       7.51821449       5.46689692       3.47249717
Si       8.48310131       3.77751628       3.47249717
Si      10.91252989       7.21322578      11.30191305
Si       5.27357846       5.84391522      11.30191305
Si       9.27891190       1.64509530      11.30191305
Si      10.83512639       3.34535986      12.24504000
Si       8.66195035       7.71081478      12.24504000
Si       5.96794351       3.64606166      12.24504000
Si       9.79708849       9.30618075      10.78204204
Si       4.01874698       3.83143714      10.78204204
Si      11.64918478       1.56461841      10.78204204
Si       4.24787601       1.32993987       2.51637587
Si       5.21263994       3.01379860       2.51637587
Si       3.27199354       3.00737931       2.51637587
24
Lattice="8.485661882313519 -2.3008239345338944e-12 1.2893661818618138e-14 4.242830941158753 7.348798758007634 -1.941971535944624e-14 4.242830941157403 2.4495995860018285 14.844564181592014" Properties=species:S:1:pos:R:3 unique_starting_index=24 config_type=initial n_minim_iter=17 stress="0.00013127319036050996 -2.974352118940181e-16 1.5942767224625736e-15 -2.974352118940181e-16 0.00013127319035904485 -1.3405572907037851e-15 1.5942767224625736e-15 -1.3405572907037851e-15 7.023688591971775e-05" pbc="T T T"
Si       9.46652261       4.34173401      15.75803011
Si       8.47800966       6.02738207      15.75803011
Si       7.51245210       4.32848071      15.75803011
Si       9.35346935       3.92910665      10.51023172
Si       8.89188207       6.13578875      10.51023172
Si       7.21163295       4.63270139      10.51023172
Si      10.15470331       3.92630389       2.60396760
Si       8.49369236       6.83107909       2.60396760
Si       6.80858871       3.94021381       2.60396760
Si       9.46193281       5.45726126       3.46836749
Si       7.51422963       5.46564355       3.46836749
Si       8.48082194       3.77469197       3.46836749
Si      10.90956454       7.21159283      11.26408351
Si       5.27111806       5.84216362      11.26408351
Si       9.27630178       1.64384034      11.26408351
Si      10.83057406       3.33623867      12.22334226
Si       8.66676845       7.71143294      12.22334226
Si       5.95964187       3.64992518      12.22334226
Si       9.79580102       9.30862291      10.75597882
Si       4.01191849       3.82910108      10.75597882
Si      11.64926486       1.55987279      10.75597882
Si       4.24776252       1.32927302       2.50738310
Si       5.21059557       3.01403374       2.50738310
Si       3.27013346       3.00549126       2.50738310
24
Lattice="8.478249699848067 -2.4371358389114665e-12 1.2989295122962879e-14 4.239124849926148 7.342379619694998 -1.942314768662984e-14 4.2391248499247185 2.4474598732309034 14.665052269850007" Properties=species:S:1:pos:R:3 unique_starting_index=24 config_type=initial n_minim_iter=18 stress="-0.000782341565007859 1.0137743120073387e-15 1.5125133299466497e-15 1.0137743120073387e-15 -0.0007823415650094108 -1.4385416138623811e-15 1.5125133299466497e-15 -1.4385416138623811e-15 -0.00021139949726289308" pbc="T T T"
Si       9.46105492       4.34318881      15.54046144
Si       8.46465925       6.02191951      15.54046144
Si       7.50903366       4.31965019      15.54046144
Si       9.36104219       3.93343414      10.38139250
Si       8.86952357       6.14018327      10.38139250
Si       7.20418207       4.61114110      10.38139250
Si      10.14495615       3.92238667       2.57401053
Si       8.48713398       6.82459642       2.57401053
Si       6.80265770       3.93777543       2.57401053
Si       9.45567282       5.45293184       3.44275811
Si       7.50628464       5.46238695       3.44275811
Si       8.47279037       3.76943971       3.44275811
Si      10.90475255       7.20981814      11.09486902
Si       5.26023662       5.83888366      11.09486902
Si       9.26975867       1.63605671      11.09486902
Si      10.81393991       3.30309635      12.11444424
Si       8.68896325       7.71359850      12.11444424
Si       5.93184467       3.66806366      12.11444424
Si       9.79608854       9.32253346      10.63624555
Si       3.98490348       3.82239481      10.63624555
Si      11.65375581       1.53983024      10.63624555
Si       4.24728772       1.32781480       2.47169695
Si       5.20468365       3.01435167       2.47169695
Si       3.26540191       3.00021242       2.47169695
24
Lattice="8.483850666830511 -2.4223113124360906e-12 1.3376622005884083e-14 4.241925333417356 7.347230199387555 -1.953240847003078e-14 4.241925333415934 2.4490767331284267 14.689161021654987" Properties=species:S:1:pos:R:3 unique_starting_index=24 config_type=initial n_minim_iter=19 stress="0.0005791182770116369 -5.553439611442818e-16 2.132375305826057e-15 -5.553439611442818e-16 0.0005791182770079315 -1.9710163590372462e-15 2.132375305826057e-15 -1.9710163590372462e-15 0.0002554761646968157" pbc="T T T"
Si       9.46765405       4.34536736      15.57236919
Si       8.47067494       6.02654524      15.57236919
Si       7.51322174       4.32254706      15.57236919
Si       9.36923850       3.93376045      10.39465549
Si       8.87634475       6.14711833      10.39465549
Si       7.20596748       4.61358088      10.39465549
Si      10.15105335       3.92477059       2.57549068
Si       8.49322278       6.82868478       2.57549068
Si       6.80727460       3.94100430       2.57549068
Si       9.46001180       5.45533396       3.44371233
Si       7.51323680       5.46494356       3.44371233
Si       8.47830214       3.77418215       3.44371233
Si      10.91178576       7.21653647      11.11505223
Si       5.26210370       5.84161543      11.11505223
Si       9.27766127       1.63630776      11.11505223
Si      10.81806638       3.31013497      12.13154573
Si       8.69200632       7.71365282      12.13154573
Si       5.94147803       3.67067187      12.13154573
Si       9.80308667       9.32756762      10.65595437
Si       3.98824664       3.82593828      10.65595437
Si      11.66021742       1.54095376      10.65595437
Si       4.24971232       1.32865003       2.47930821
Si       5.20834898       3.01603382       2.47930821
Si       3.26771342       3.00254562       2.47930821
24
Lattice="8.480567422177328 -2.5082058179512696e-12 1.399375424940545e-14 4.2402837110908385 7.344386826111017 -1.913175179634801e-14 4.240283711089368 2.448128942036219 14.591182724327876" Properties=species:S:1:pos:R:3 unique_starting_index=24 config_type=initial n_minim_iter=20 stress="0.0002727081822039355 -4.317236346488449e-16 2.3361208447622697e-15 -4.317236346488449e-16 0.0002727081821993471 -1.895051749431298e-15 2.3361208447622697e-15 -1.895051749431298e-15 -0.0002857971763474526" pbc="T T T"
Si       9.46498846       4.34533110      15.45427091
Si       8.46547265       6.02425490      15.45427091
Si       7.51123989       4.31918692      15.45427091
Si       9.37639571       3.93688669      10.32188547
Si       8.86349226       6.15175354      10.32188547
Si       7.20181303       4.60013269      10.32188547
Si      10.14754161       3.92432828       2.55918486
Si       8.48879521       6.82586468       2.55918486
Si       6.80536418       3.93857996       2.55918486
Si       9.45644776       5.45404424       3.42879086
Si       7.50956926       5.46250187       3.42879086
Si       8.47568398       3.77222682       3.42879086
Si      10.91166028       7.21722925      11.02053511
Si       5.25499998       5.84116037      11.02053511
Si       9.27504074       1.63038330      11.02053511
Si      10.80700392       3.29353195      12.07493880
Si       8.70534971       7.71237396      12.07493880
Si       5.92934737       3.68286701      12.07493880
Si       9.80554460       9.33746227      10.59263021
Si       3.97188217       3.82311958      10.59263021
Si      11.66427424       1.52819107      10.59263021
Si       4.24906691       1.32812540       2.45982945
Si       5.20584278       3.01573719       2.45982945
Si       3.26594017       3.00052350       2.45982945
24
Lattice="8.47307276921996 -2.5728391103622637e-12 1.408179472288205e-14 4.23653638461221 7.337896266257352 -1.94803992688298e-14 4.236536384610704 2.445965422084975 14.58516572167115" Properties=species:S:1:pos:R:3 unique_starting_index=24 config_type=initial n_minim_iter=21 stress="-0.0007144281123125172 -7.397195187039847e-16 2.5748164842541377e-15 -7.397195187039847e-16 -0.0007144281123182498 -2.0031927780593505e-15 2.5748164842541377e-15 -2.0031927780593505e-15 -0.000281237309596174" pbc="T T T"
Si       9.45554856       4.33966996      15.44681040
Si       8.46010599       6.01891029      15.44681040
Si       7.50356249       4.31721156      15.44681040
Si       9.37805354       3.93643991      10.30674639
Si       8.84806096       6.15341265      10.30674639
Si       7.19310254       4.58593924      10.30674639
Si      10.14158666       3.92702478       2.55565181
Si       8.47444815       6.81935929       2.55565181
Si       6.80318223       3.92940773       2.55565181
Si       9.44735331       5.45342351       3.42749845
Si       7.49966474       5.45493621       3.42749845
Si       8.47219898       3.76743208       3.42749845
Si      10.90519424       7.21601775      11.00062381
Si       5.24429289       5.83616637      11.00062381
Si       9.26972991       1.62360768      11.00062381
Si      10.78546609       3.28935161      12.08773943
Si       8.70474960       7.69581182      12.08773943
Si       5.92900136       3.69062837      12.08773943
Si       9.80238738       9.34034726      10.59994287
Si       3.95597300       3.81894286      10.59994287
Si      11.66085666       1.51650169      10.59994287
Si       4.24373113       1.32698122       2.45904744
Si       5.20200691       3.01168836       2.45904744
Si       3.26386984       2.99922596       2.45904744
