14
Lattice="5.735381909241033 0.6121570171159281 6.765234842599626e-15 0.33661590126444785 2.632488028488089 2.6082345814491073e-14 -2.035543061781037e-15 -1.4429835454667877e-13 14.591115690833215" Properties=species:S:1:pos:R:3 unique_starting_index=0 config_type=initial n_minim_iter=1 energy=-2278.903200703349 free_energy=-2278.903200703349 pbc="T T T"
Si       1.88772232       1.75161960      11.60696939
Si       1.14827658      -0.12929708       4.31141154
Si       4.18427549       1.49302545       2.98414631
Si       4.92372123       3.37394212      10.27970415
Si       4.67801046       0.83543171       5.23171018
Si       4.09337036       1.39904783      12.52726803
Si       1.39398736       2.40921334       9.35940551
Si       1.97862745       1.84559721       2.06384767
Si       2.42844028       0.98855405       6.21346979
Si       0.60755863       0.63376847      13.50902764
Si       3.64355753       2.25609100       8.37764590
Si       5.46443918       2.61087657       1.08208805
Si       2.86769095       0.30607851       0.00000000
Si       0.16830795       1.31624401       7.29555785
14
Lattice="5.736345926650472 0.610807483181169 6.752617763928539e-15 0.335976979294666 2.633200808308636 2.6089384778063762e-14 -2.033814209332351e-15 -1.44278710241378e-13 14.589154922872961" Properties=species:S:1:pos:R:3 unique_starting_index=0 config_type=initial n_minim_iter=2 stress="0.00033784395303758434 -9.819469066076727e-05 1.7237543332349118e-18 -9.819469066076727e-05 0.0001721089519387061 -2.7013464898148966e-17 1.7237543332349118e-18 -2.7013464898148966e-17 0.00012859592032083938" pbc="T T T"
Si       1.88735766       1.75144819      11.60526033
Si       1.14880380      -0.12944404       4.31068287
Si       4.18496525       1.49256011       2.98389460
Si       4.92351911       3.37345233      10.27847206
Si       4.67874910       0.83423700       5.23092181
Si       4.09375828       1.39857463      12.52549927
Si       1.39357381       2.40977130       9.35823311
Si       1.97856462       1.84543366       2.06365565
Si       2.42842960       0.98835062       6.21237667
Si       0.60773185       0.63365352      13.50695413
Si       3.64389330       2.25565767       8.37677826
Si       5.46459105       2.61035477       1.08220079
Si       2.86817296       0.30540374       0.00000000
Si       0.16798849       1.31660040       7.29457746
14
Lattice="5.733055151838277 0.608049691460223 6.728922757227026e-15 0.3344270149279569 2.634053623443934 2.609814923828712e-14 -2.0221667488467217e-15 -1.4415206127227818e-13 14.576527835244544" Properties=species:S:1:pos:R:3 unique_starting_index=0 config_type=initial n_minim_iter=3 stress="-0.0003796920552179083 -0.00040285323250166717 -3.6234836383050116e-17 -0.00040285323250166717 -0.0001208298950285166 2.1320718321508106e-17 -3.6234836383050116e-17 2.1320718321508106e-17 -0.0008401935004714606" pbc="T T T"
Si       1.88437609       1.75027341      11.59461552
Si       1.14936499      -0.12922175       4.30635160
Si       4.18310607       1.49182991       2.98191231
Si       4.91811718       3.37132506      10.27017623
Si       4.67609886       0.83126994       5.22604333
Si       4.09069738       1.39783141      12.51430725
Si       1.39138331       2.41083338       9.35048450
Si       1.97678479       1.84427191       2.06222058
Si       2.42572789       0.98809397       6.20590263
Si       0.60801320       0.63295769      13.49416655
Si       3.64175428       2.25400934       8.37062520
Si       5.45946897       2.60914563       1.08236129
Si       2.86652758       0.30402485       0.00000000
Si       0.16721351       1.31702681       7.28826392
14
Lattice="5.731198370175008 0.6098894133486584 6.744454039335242e-15 0.33486141648399287 2.6368740841110654 2.612578590444896e-14 -2.0291770350508197e-15 -1.442330149938017e-13 14.584611755105398" Properties=species:S:1:pos:R:3 unique_starting_index=0 config_type=initial n_minim_iter=4 stress="8.324606015515405e-05 -0.00028964522611606754 -1.4731106900090789e-16 -0.00028964522611606754 0.0008733648147696173 -7.986264085242027e-18 -1.4731106900090789e-16 -7.986264085242027e-18 6.369879319237489e-05" pbc="T T T"
Si       1.88145192       1.75023210      11.59962371
Si       1.15157797      -0.12685035       4.30731784
Si       4.18460786       1.49653140       2.98498804
Si       4.91448182       3.37361384      10.27729392
Si       4.67520381       0.83094132       5.22813425
Si       4.08902445       1.40232984      12.52044012
Si       1.39085597       2.41582217       9.35647751
Si       1.97703534       1.84443366       2.06417163
Si       2.42288868       0.99122249       6.20664110
Si       0.61014122       0.63215926      13.49894698
Si       3.64317111       2.25554101       8.37797065
Si       5.45591857       2.61460424       1.08566477
Si       2.86559919       0.30494471       0.00000000
Si       0.16743071       1.31843704       7.29230588
14
Lattice="5.733852397779259 0.6108794509759526 6.754047535518543e-15 0.33571506107970295 2.63459308816365 2.6103272438031352e-14 -2.030834065763827e-15 -1.4425226051255427e-13 14.586533789130462" Properties=species:S:1:pos:R:3 unique_starting_index=0 config_type=initial n_minim_iter=5 stress="0.0006583171129209626 -0.00019911907145505456 -2.4140766428684207e-16 -0.00019911907145505456 7.454566028755299e-05 1.182457006768663e-16 -2.4140766428684207e-16 1.182457006768663e-16 -6.432745325619298e-05" pbc="T T T"
Si       1.88136176       1.74788929      11.60040312
Si       1.15342196      -0.12515302       4.30713622
Si       4.18820569       1.49758324       2.98613067
Si       4.91614549       3.37062556      10.27939757
Si       4.67772752       0.83023823       5.22851041
Si       4.09090861       1.40337750      12.52177731
Si       1.39183994       2.41523431       9.35802338
Si       1.97865885       1.84209504       2.06475648
Si       2.42316516       0.99185614       6.20609582
Si       0.61161856       0.63088013      13.49936272
Si       3.64640229       2.25361640       8.38043797
Si       5.45794889       2.61459241       1.08717107
Si       2.86692620       0.30543973       0.00000000
Si       0.16785753       1.31729654       7.29326689
14
Lattice="5.730202914900946 0.6123250903130547 6.765761284447086e-15 0.33618598601531907 2.634390885015583 2.610106358469222e-14 -2.03687080070898e-15 -1.443212417424484e-13 14.593420194790506" Properties=species:S:1:pos:R:3 unique_starting_index=0 config_type=initial n_minim_iter=6 stress="-5.547058030757093e-05 2.4485587695996844e-07 -2.162534365640995e-16 2.4485587695996844e-07 -4.523491456428372e-05 5.361629060707665e-17 -2.162534365640995e-16 5.361629060707665e-17 0.00012519095966161768" pbc="T T T"
Si       1.87992339       1.74729616      11.60540282
Si       1.15327106      -0.12393817       4.30869272
Si       4.18646551       1.49941981       2.98801737
Si       4.91311784       3.37065415      10.28472747
Si       4.67497695       0.83055051       5.23097570
Si       4.08842041       1.40513257      12.52768580
Si       1.39141195       2.41616546       9.36244449
Si       1.97796849       1.84158341       2.06573439
Si       2.42150568       0.99296328       6.20837876
Si       0.61168877       0.63039471      13.50508886
Si       3.64488322       2.25375270       8.38504143
Si       5.45470013       2.61632127       1.08833134
Si       2.86510146       0.30616255       0.00000000
Si       0.16809299       1.31719544       7.29671010
14
Lattice="5.728269930220376 0.617657718775327 6.820185980835439e-15 0.33842393552538613 2.6352924708146297 2.6110549802413082e-14 -2.031176113724659e-15 -1.4425647150813231e-13 14.586953752743492" Properties=species:S:1:pos:R:3 unique_starting_index=0 config_type=initial n_minim_iter=7 stress="-0.0007789369263244913 0.0006043533267173309 -2.54228264487491e-16 0.0006043533267173309 -0.00014381030035176358 2.968552761549511e-17 -2.54228264487491e-16 2.968552761549511e-17 -0.00026515886735242544" pbc="T T T"
Si       1.87971352       1.74676355      11.59885618
Si       1.15363342      -0.12028846       4.30537930
Si       4.18698035       1.50618664       2.98809757
Si       4.91306045       3.37323865      10.28157445
Si       4.67382301       0.83263758       5.22940912
Si       4.08779386       1.41149523      12.52288600
Si       1.39287086       2.42031261       9.35754463
Si       1.97890001       1.84145496       2.06406775
Si       2.42190804       0.99699501       6.20491899
Si       0.61143889       0.62948009      13.49839587
Si       3.64478582       2.25595518       8.38203476
Si       5.45525498       2.62347010       1.08855788
Si       2.86413497       0.30882886       0.00000000
Si       0.16921197       1.31764624       7.29347688
14
Lattice="5.723675843581793 0.6124061668725987 6.76531843108753e-15 0.33593207261911745 2.6335293534031603 2.6092460837047254e-14 -2.037847980998183e-15 -1.4433282505643427e-13 14.594575469841024" Properties=species:S:1:pos:R:3 unique_starting_index=0 config_type=initial n_minim_iter=8 stress="-0.0012881641143980998 7.217650560550821e-05 -2.3759789765753453e-16 7.217650560550821e-05 -0.0006477010221949635 -1.0028358103015186e-16 -2.3759789765753453e-16 -1.0028358103015186e-16 0.0002969241611982973" pbc="T T T"
Si       1.87466099       1.73636024      11.60090803
Si       1.15514297      -0.11339248       4.30362029
Si       4.18494692       1.50957528       2.99366744
Si       4.90446495       3.35932800      10.29095518
Si       4.67014248       0.82124893       5.23491934
Si       4.08333732       1.41412500      12.53220707
Si       1.38946544       2.42468659       9.35965613
Si       1.97627059       1.83181052       2.06236840
Si       2.42184395       0.99908498       6.20692461
Si       0.60796000       0.62388278      13.50421234
Si       3.63776396       2.24685054       8.38765086
Si       5.45164791       2.62205274       1.09036313
Si       2.86183792       0.30620308       0.00000000
Si       0.16796604       1.31676468       7.29728773
14
Lattice="5.728040812295765 0.6126654222387514 6.7731535665575784e-15 0.33610556351303617 2.635419012361452 2.6111789938539927e-14 -2.0242970265834287e-15 -1.4417945510181842e-13 14.579266286591437" Properties=species:S:1:pos:R:3 unique_starting_index=0 config_type=initial n_minim_iter=9 stress="-0.0003039209134940774 1.4177290041651425e-05 -3.719992817842137e-16 1.4177290041651425e-05 -0.00017191574142337194 6.937828158726893e-17 -3.719992817842137e-16 6.937828158726893e-17 7.900924556919688e-05" pbc="T T T"
Si       1.87529266       1.73454363      11.58709705
Si       1.15678053      -0.11050141       4.29746391
Si       4.18885372       1.51354080       2.99216924
Si       4.90736584       3.35858585      10.28180238
Si       4.67391843       0.81907568       5.23038448
Si       4.08619557       1.41763196      12.52001762
Si       1.39022795       2.42900876       9.34888181
Si       1.97795080       1.83045247       2.05924867
Si       2.42464718       1.00160170       6.20024140
Si       0.60742601       0.62244051      13.48987454
Si       3.63949920       2.24648273       8.37902489
Si       5.45672036       2.62564392       1.08939175
Si       2.86402041       0.30633271       0.00000000
Si       0.16805278       1.31770951       7.28963314
14
Lattice="5.729719831975883 0.6126820592237564 6.7756805745061884e-15 0.3361210776578069 2.6362684706329373 2.6120471865911806e-14 -2.0181478599217192e-15 -1.4411251190827212e-13 14.572586499518113" Properties=species:S:1:pos:R:3 unique_starting_index=0 config_type=initial n_minim_iter=10 stress="8.270013620999923e-05 -1.2607247178451262e-05 -4.3074250411044176e-16 -1.2607247178451262e-05 3.981270991904966e-05 -2.2866616834175775e-17 -4.3074250411044176e-16 -2.2866616834175775e-17 -1.3309137369922892e-05" pbc="T T T"
Si       1.87541270       1.73340223      11.58088870
Si       1.15750776      -0.10892696       4.29459545
Si       4.19042821       1.51554830       2.99169780
Si       4.90833315       3.35787749      10.27799105
Si       4.67557246       0.81780208       5.22830054
Si       4.08706783       1.41935524      12.51459379
Si       1.39026845       2.43114845       9.34428596
Si       1.97877308       1.82959529       2.05799271
Si       2.42569095       1.00293533       6.19748521
Si       0.60722950       0.62153994      13.48377846
Si       3.64014996       2.24601520       8.37510129
Si       5.45861141       2.62741059       1.08880804
Si       2.86485992       0.30634103       0.00000000
Si       0.16806054       1.31813424       7.28629325
14
Lattice="5.731494426914214 0.6124802072436658 6.776739751136675e-15 0.33603902927485296 2.6371449822957924 2.612949456681478e-14 -2.010139890520224e-15 -1.4403271382744744e-13 14.56463386915971" Properties=species:S:1:pos:R:3 unique_starting_index=0 config_type=initial n_minim_iter=11 stress="0.0004860889783782756 -3.856785302408282e-05 -4.461602019894469e-16 -3.856785302408282e-05 0.0002642365522811188 8.132629380197266e-17 -4.461602019894469e-16 8.132629380197266e-17 -0.00011153836380499561" pbc="T T T"
Si       1.87533658       1.73081941      11.57296093
Si       1.15843015      -0.10600682       4.29064399
Si       4.19219688       1.51880578       2.99167294
Si       4.90910331       3.35563201      10.27398988
Si       4.67794825       0.81533755       5.22549313
Si       4.08731290       1.42195525      12.50781006
Si       1.38958521       2.43428764       9.33914074
Si       1.98022055       1.82766994       2.05682381
Si       2.42672256       1.00527284       6.19493380
Si       0.60704417       0.61953976      13.47725073
Si       3.64081090       2.24435235       8.36970007
Si       5.46048929       2.63008543       1.08738314
Si       2.86574721       0.30624010       0.00000000
Si       0.16801951       1.31857249       7.28231693
14
Lattice="5.729108505698265 0.612046741085644 6.77019391238809e-15 0.3358323096425836 2.635905729241726 2.6116949021703463e-14 -2.0158999524612187e-15 -1.441091563446489e-13 14.572277362013113" Properties=species:S:1:pos:R:3 unique_starting_index=0 config_type=initial n_minim_iter=12 stress="-6.388727422736904e-05 6.741788383405405e-06 -4.839756958639413e-16 6.741788383405405e-06 -3.0141716052360656e-05 -3.931902945261875e-18 -4.839756958639413e-16 -3.931902945261875e-18 8.378133536995599e-06" pbc="T T T"
Si       1.87466743       1.72971844      11.57913467
Si       1.15780298      -0.10574220       4.29299598
Si       4.19027338       1.51823403       2.99314270
Si       4.90713784       3.35369467      10.27928138
Si       4.67671085       0.81504290       5.22715606
Si       4.08486806       1.42098008      12.51329474
Si       1.38822996       2.43290957       9.34512130
Si       1.98007276       1.82697239       2.05898262
Si       2.42515446       1.00527309       6.19964501
Si       0.60731594       0.61870315      13.48578369
Si       3.63978635       2.24267938       8.37263236
Si       5.45762487       2.62924932       1.08649368
Si       2.86455425       0.30602337       0.00000000
Si       0.16791615       1.31795286       7.28613868
14
Lattice="5.728269831158412 0.6114371952024431 6.7643242150423716e-15 0.33550772644671456 2.6358643594037465 2.6116525843115847e-14 -2.0152301880952683e-15 -1.4411076720484978e-13 14.57244872463228" Properties=species:S:1:pos:R:3 unique_starting_index=0 config_type=initial n_minim_iter=13 stress="0.0001810902689846264 -9.210987584635278e-07 -4.462470687242492e-16 -9.210987584635278e-07 -7.391372978473817e-05 5.3007425128586126e-17 -4.462470687242492e-16 5.3007425128586126e-17 6.692169435000983e-05" pbc="T T T"
Si       1.87145483       1.72596117      11.58030185
Si       1.16043395      -0.10231039       4.29407748
Si       4.19232273       1.52134038       2.99214688
Si       4.90334361       3.34961195      10.27837124
Si       4.67488567       0.81381371       5.22521512
Si       4.08527294       1.42127426      12.51143948
Si       1.38889189       2.43348784       9.34723361
Si       1.97850462       1.82602729       2.06100924
Si       2.42550184       1.00849956       6.20292393
Si       0.60638694       0.61515122      13.48914829
Si       3.63827572       2.23880200       8.36952479
Si       5.45739061       2.63215033       1.08330043
Si       2.86413492       0.30571860       0.00000000
Si       0.16775386       1.31793218       7.28622436
