14
Lattice="4.69194 0.0 0.0 0.0 5.05494 -3.09525804544096e-16 0.0 7.519980409568299e-16 12.281060000000004" Properties=species:S:1:pos:R:3 unique_starting_index=9 config_type=initial n_minim_iter=1 pbc="T T T"
Si       1.61540679       1.14248165       5.81176848
Si       3.07653321       1.14248165       6.46929152
Si       3.96137679       3.91245835       0.32876152
Si       0.73056321       3.91245835      11.95229848
Si       3.07653321       3.91245835       6.46929152
Si       1.61540679       3.91245835       5.81176848
Si       0.73056321       1.14248165      11.95229848
Si       3.96137679       1.14248165       0.32876152
Si       0.31027377       2.52747000       1.56962631
Si       4.38166623       2.52747000      10.71143369
Si       2.65624377       2.52747000       4.57090369
Si       2.03569623       2.52747000       7.71015631
Si      -0.00000000       2.52747000      -0.00000000
Si       2.34597000       2.52747000       6.14053000
14
Lattice="4.755746841593886 0.0 0.0 0.0 5.171562885604188 -2.9584317965336565e-16 0.0 8.129090425764232e-16 12.449589211508378" Properties=species:S:1:pos:R:3 unique_starting_index=9 config_type=initial n_minim_iter=2 pbc="T T T"
Si       1.63487123       1.16740952       5.89055992
Si       3.12087561       1.16740952       6.55902929
Si       4.01274465       4.00415337       0.33423468
Si       0.74300219       4.00415337      12.11535453
Si       3.12087561       4.00415337       6.55902929
Si       1.63487123       4.00415337       5.89055992
Si       0.74300219       1.16740952      12.11535453
Si       4.01274465       1.16740952       0.33423468
Si       0.31499448       2.58578144       1.59313471
Si       4.44075236       2.58578144      10.85645450
Si       2.69286790       2.58578144       4.63165989
Si       2.06287894       2.58578144       7.81792932
Si      -0.00000000       2.58578144      -0.00000000
Si       2.37787342       2.58578144       6.22479461
14
Lattice="5.100651935523063 0.0 0.0 0.0 5.817842017180667 -2.227741171775579e-16 0.0 1.1431084798294457e-15 13.375266406013598" Properties=species:S:1:pos:R:3 unique_starting_index=9 config_type=initial n_minim_iter=3 pbc="T T T"
Si       1.73839698       1.30441236       6.32283751
Si       3.36225496       1.30441236       7.05242889
Si       4.28872295       4.51342966       0.36479569
Si       0.81192899       4.51342966      13.01047072
Si       3.36225496       4.51342966       7.05242889
Si       1.73839698       4.51342966       6.32283751
Si       0.81192899       1.30441236      13.01047072
Si       4.28872295       1.30441236       0.36479569
Si       0.34066431       2.90892101       1.72269420
Si       4.75998762       2.90892101      11.65257220
Si       2.89099028       2.90892101       4.96493900
Si       2.20966165       2.90892101       8.41032740
Si      -0.00000000       2.90892101      -0.00000000
Si       2.55032597       2.90892101       6.68763320
14
Lattice="5.506827279957447 0.0 0.0 0.0 5.941011542472473 -2.228580574598494e-16 0.0 1.2076176673123392e-15 14.072909355884054" Properties=species:S:1:pos:R:3 unique_starting_index=9 config_type=initial n_minim_iter=4 pbc="T T T"
Si       1.86820595       1.32951646       6.64798096
Si       3.63862133       1.32951646       7.42492839
Si       4.62161959       4.61149508       0.38847372
Si       0.88520769       4.61149508      13.68443564
Si       3.63862133       4.61149508       7.42492839
Si       1.86820595       4.61149508       6.64798096
Si       0.88520769       1.32951646      13.68443564
Si       4.62161959       1.32951646       0.38847372
Si       0.36830957       2.97050577       1.81992868
Si       5.13851771       2.97050577      12.25298067
Si       3.12172321       2.97050577       5.21652599
Si       2.38510407       2.97050577       8.85638336
Si      -0.00000000       2.97050577      -0.00000000
Si       2.75341364       2.97050577       7.03645468
14
Lattice="5.817844584810441 0.0 0.0 0.0 6.09209297311658 -4.373961620076251e-16 0.0 7.712677895164631e-16 14.853836734961263" Properties=species:S:1:pos:R:3 unique_starting_index=9 config_type=initial n_minim_iter=5 pbc="T T T"
Si       1.96893787       1.36244620       7.01315336
Si       3.84890672       1.36244620       7.84068337
Si       4.87786016       4.72964678       0.41376500
Si       0.93998443       4.72964678      14.44007173
Si       3.84890672       4.72964678       7.84068337
Si       1.96893787       4.72964678       7.01315336
Si       0.93998443       1.36244620      14.44007173
Si       4.87786016       1.36244620       0.41376500
Si       0.38920876       3.04604649       1.92979283
Si       5.42863582       3.04604649      12.92404390
Si       3.29813105       3.04604649       5.49712554
Si       2.51971353       3.04604649       9.35671120
Si      -0.00000000       3.04604649      -0.00000000
Si       2.90892229       3.04604649       7.42691837
14
Lattice="5.937406858914037 9.811736386397469e-66 -8.91425027850823e-49 -1.3093009900415496e-64 6.107973802112991 -7.800598986692971e-16 2.33328735076272e-48 -5.2033989005707865e-17 14.927864281253164" Properties=species:S:1:pos:R:3 unique_starting_index=9 config_type=initial n_minim_iter=6 pbc="T T T"
Si       2.00872723       1.36942191       7.04659540
Si       3.92867963       1.36942191       7.88126888
Si       4.97743066       4.73855189       0.41733674
Si       0.95997620       4.73855189      14.51052754
Si       3.92867963       4.73855189       7.88126888
Si       2.00872723       4.73855189       7.04659540
Si       0.95997620       1.36942191      14.51052754
Si       4.97743066       1.36942191       0.41733674
Si       0.39626779       3.05398690       1.93983134
Si       5.54113907       3.05398690      12.98803294
Si       3.36497122       3.05398690       5.52410080
Si       2.57243564       3.05398690       9.40376349
Si      -0.00000000       3.05398690      -0.00000000
Si       2.96870343       3.05398690       7.46393214
14
Lattice="6.0468396506906155 -3.306288543219948e-64 -1.5995968490447963e-48 -5.497281576853372e-64 6.094585886939434 -1.65111783011257e-15 -1.8632380612545637e-48 -2.1659142399844403e-15 14.918834124113742" Properties=species:S:1:pos:R:3 unique_starting_index=9 config_type=initial n_minim_iter=7 pbc="T T T"
Si       2.04563196       1.37273627       7.04048532
Si       4.00120769       1.37273627       7.87834880
Si       5.06905178       4.72184962       0.41893174
Si       0.97778787       4.72184962      14.49990239
Si       4.00120769       4.72184962       7.87834880
Si       2.04563196       4.72184962       7.04048532
Si       0.97778787       1.37273627      14.49990239
Si       5.06905178       1.37273627       0.41893174
Si       0.40197202       3.04729294       1.93809809
Si       5.64486764       3.04729294      12.98073604
Si       3.42539184       3.04729294       5.52131898
Si       2.62144781       3.04729294       9.39751515
Si      -0.00000000       3.04729294      -0.00000000
Si       3.02341983       3.04729294       7.45941706
14
Lattice="6.126524309563822 3.068854972492365e-64 -7.540732227520938e-49 -2.821744797385578e-64 6.071625767246831 -2.627980847855118e-15 5.01631261872878e-48 -4.532174606904925e-15 14.900863717524944" Properties=species:S:1:pos:R:3 unique_starting_index=9 config_type=initial n_minim_iter=8 pbc="T T T"
Si       2.07346147       1.37818565       7.02939667
Si       4.05306284       1.37818565       7.87146705
Si       5.13672362       4.69344012       0.42103519
Si       0.98980069       4.69344012      14.47982853
Si       4.05306284       4.69344012       7.87146705
Si       2.07346147       4.69344012       7.02939667
Si       0.98980069       1.37818565      14.47982853
Si       5.13672362       1.37818565       0.42103519
Si       0.40477174       3.03581288       1.93535069
Si       5.72175257       3.03581288      12.96551303
Si       3.46803390       3.03581288       5.51508117
Si       2.65849041       3.03581288       9.38578255
Si      -0.00000000       3.03581288      -0.00000000
Si       3.06326215       3.03581288       7.45043186
14
Lattice="6.149020127655401 2.8982692588913076e-63 7.09177372037912e-49 -2.228600715269771e-64 6.127359981464198 -2.2362184747726493e-15 -4.932038179352164e-49 -3.6429573950570725e-15 14.889700223312719" Properties=species:S:1:pos:R:3 unique_starting_index=9 config_type=initial n_minim_iter=9 pbc="T T T"
Si       2.08228393       1.40068063       7.02134952
Si       4.06673620       1.40068063       7.86835071
Si       5.15679400       4.72667935       0.42350059
Si       0.99222613       4.72667935      14.46619963
Si       4.06673620       4.72667935       7.86835071
Si       2.08228393       4.72667935       7.02134952
Si       0.99222613       1.40068063      14.46619963
Si       5.15679400       1.40068063       0.42350059
Si       0.40359742       3.06367999       1.93389331
Si       5.74542271       3.06367999      12.95580691
Si       3.47810748       3.06367999       5.51095680
Si       2.67091265       3.06367999       9.37874342
Si      -0.00000000       3.06367999      -0.00000000
Si       3.07451006       3.06367999       7.44485011
14
Lattice="6.146222635082495 5.714662221407343e-63 4.475931787909638e-48 2.724109581716818e-64 6.132135856781516 -2.4325418573150594e-15 9.366183131973107e-48 -4.125836487687939e-15 14.889763694617121" Properties=species:S:1:pos:R:3 unique_starting_index=9 config_type=initial n_minim_iter=10 pbc="T T T"
Si       2.08156271       1.40311100       7.02106642
Si       4.06465993       1.40311100       7.86869727
Si       5.15467403       4.72902486       0.42381543
Si       0.99154861       4.72902486      14.46594827
Si       4.06465993       4.72902486       7.86869727
Si       2.08156271       4.72902486       7.02106642
Si       0.99154861       1.40311100      14.46594827
Si       5.15467403       1.40311100       0.42381543
Si       0.40309754       3.06606793       1.93395538
Si       5.74312509       3.06606793      12.95580831
Si       3.47620886       3.06606793       5.51092647
Si       2.67001378       3.06606793       9.37883723
Si      -0.00000000       3.06606793      -0.00000000
Si       3.07311132       3.06606793       7.44488185
14
Lattice="6.142897937270312 1.8673811747804174e-64 -2.916301131973358e-48 8.594285324733362e-64 6.140185484227657 -1.9272648441289844e-15 8.683748887833146e-48 -2.9068692067232225e-15 14.889000046315088" Properties=species:S:1:pos:R:3 unique_starting_index=9 config_type=initial n_minim_iter=11 pbc="T T T"
Si       2.08075472       1.40687930       7.02024480
Si       4.06214322       1.40687930       7.86875524
Si       5.15220369       4.73330619       0.42425522
Si       0.99069425       4.73330619      14.46474483
Si       4.06214322       4.73330619       7.86875524
Si       2.08075472       4.73330619       7.02024480
Si       0.99069425       1.40687930      14.46474483
Si       5.15220369       1.40687930       0.42425522
Si       0.40241257       3.07009274       1.93391983
Si       5.74048536       3.07009274      12.95508022
Si       3.47386154       3.07009274       5.51058020
Si       2.66903639       3.07009274       9.37841985
Si      -0.00000000       3.07009274      -0.00000000
Si       3.07144897       3.07009274       7.44450002
14
Lattice="6.118315047765858 -1.2116368788012856e-63 -6.464237660130237e-48 -3.0816008476278646e-64 6.228301839195956 -1.894380699943561e-15 -1.9282705346750404e-47 -2.889084184795753e-15 14.875743726620888" Properties=species:S:1:pos:R:3 unique_starting_index=9 config_type=initial n_minim_iter=12 pbc="T T T"
Si       2.07536742       1.44554676       7.00952774
Si       4.04294763       1.44554676       7.86621598
Si       5.13452494       4.78275508       0.42834412
Si       0.98379011       4.78275508      14.44739961
Si       4.04294763       4.78275508       7.86621598
Si       2.07536742       4.78275508       7.00952774
Si       0.98379011       1.44554676      14.44739961
Si       5.13452494       1.44554676       0.42834412
Si       0.39628786       3.11415092       1.93269960
Si       5.72202719       3.11415092      12.94304412
Si       3.45544538       3.11415092       5.50517226
Si       2.66286967       3.11415092       9.37057147
Si      -0.00000000       3.11415092      -0.00000000
Si       3.05915752       3.11415092       7.43787186
14
Lattice="6.118920011522321 -1.213422690238876e-64 -5.668273708579132e-48 8.091208337677833e-63 6.233417361850318 -1.3092545794903612e-15 2.0133582670319083e-47 -1.472588138894701e-15 14.874829710298116" Properties=species:S:1:pos:R:3 unique_starting_index=9 config_type=initial n_minim_iter=13 pbc="T T T"
Si       2.07570037       1.44754584       7.00887792
Si       4.04321964       1.44754584       7.86595179
Si       5.13516037       4.78587152       0.42853693
Si       0.98375964       4.78587152      14.44629278
Si       4.04321964       4.78587152       7.86595179
Si       2.07570037       4.78587152       7.00887792
Si       0.98375964       1.44754584      14.44629278
Si       5.13516037       1.44754584       0.42853693
Si       0.39610022       3.11670868       1.93259668
Si       5.72281979       3.11670868      12.94223303
Si       3.45556022       3.11670868       5.50481818
Si       2.66335979       3.11670868       9.37001153
Si      -0.00000000       3.11670868      -0.00000000
Si       3.05946001       3.11670868       7.43741486
14
Lattice="6.121524619741337 -3.944043530845026e-63 -1.3928469731497238e-47 6.555556194092342e-63 6.262336759445599 -4.743565700725455e-16 -1.0832465558404063e-47 5.463269083158068e-16 14.8699814309448" Properties=species:S:1:pos:R:3 unique_starting_index=9 config_type=initial n_minim_iter=14 pbc="T T T"
Si       2.07737861       1.45921909       7.00527800
Si       4.04414601       1.45921909       7.86470343
Si       5.13814092       4.80311767       0.42971271
Si       0.98338370       4.80311767      14.44026872
Si       4.04414601       4.80311767       7.86470343
Si       2.07737861       4.80311767       7.00527800
Si       0.98338370       1.45921909      14.44026872
Si       5.13814092       1.45921909       0.42971271
Si       0.39490017       3.13116838       1.93207969
Si       5.72662445       3.13116838      12.93790175
Si       3.45566248       3.13116838       5.50291103
Si       2.66586214       3.13116838       9.36707040
Si      -0.00000000       3.13116838      -0.00000000
Si       3.06076231       3.13116838       7.43499072
14
Lattice="6.118641066088637 -4.4207631691642055e-63 -9.511936893520282e-48 6.357788400735545e-63 6.285506307566064 -7.53521255539114e-17 1.3989615803871478e-49 1.5175387542959115e-15 14.867435201091546" Properties=species:S:1:pos:R:3 unique_starting_index=9 config_type=initial n_minim_iter=15 pbc="T T T"
Si       2.07755223       1.47111760       7.00244325
Si       4.04108884       1.47111760       7.86499196
Si       5.13687276       4.81438871       0.43127436
Si       0.98176830       4.81438871      14.43616085
Si       4.04108884       4.81438871       7.86499196
Si       2.07755223       4.81438871       7.00244325
Si       0.98176830       1.47111760      14.43616085
Si       5.13687276       1.47111760       0.43127436
Si       0.39297292       3.14275315       1.93199422
Si       5.72566815       3.14275315      12.93544098
Si       3.45229345       3.14275315       5.50172338
Si       2.66634762       3.14275315       9.36571182
Si      -0.00000000       3.14275315      -0.00000000
Si       3.05932053       3.14275315       7.43371760
14
Lattice="6.1233609078229225 -4.4721931473153345e-63 -9.320907200725892e-48 6.497931727600303e-63 6.423988061343921 1.5270857595328869e-16 -5.92504492058126e-49 2.049272621994393e-15 14.828388024340816" Properties=species:S:1:pos:R:3 unique_starting_index=9 config_type=initial n_minim_iter=16 pbc="T T T"
Si       2.08468781       1.53560513       6.97548356
Si       4.03867310       1.53560513       7.85290447
Si       5.14636827       4.88838293       0.43871045
Si       0.97699264       4.88838293      14.38967757
Si       4.03867310       4.88838293       7.85290447
Si       2.08468781       4.88838293       6.97548356
Si       0.97699264       1.53560513      14.38967757
Si       5.14636827       1.53560513       0.43871045
Si       0.38408679       3.21199403       1.92776862
Si       5.73927412       3.21199403      12.90061941
Si       3.44576724       3.21199403       5.48642539
Si       2.67759367       3.21199403       9.34196263
Si      -0.00000000       3.21199403      -0.00000000
Si       3.06168045       3.21199403       7.41419401
14
Lattice="6.109035138887945 4.410800288032938e-63 5.105187637203653e-48 6.49450321021134e-63 6.3150473606215645 3.232724792266546e-16 1.0873742091676394e-50 2.4830901590995416e-15 14.93803003556269" Properties=species:S:1:pos:R:3 unique_starting_index=9 config_type=initial n_minim_iter=17 pbc="T T T"
Si       2.08309346       1.52373847       7.02239359
Si       4.02594168       1.52373847       7.91563645
Si       5.13761103       4.79130889       0.44662143
Si       0.97142411       4.79130889      14.49140861
Si       4.02594168       4.79130889       7.91563645
Si       2.08309346       4.79130889       7.02239359
Si       0.97142411       1.52373847      14.49140861
Si       5.13761103       1.52373847       0.44662143
Si       0.37831222       3.15752368       1.94443460
Si       5.73072291       3.15752368      12.99359543
Si       3.43282979       3.15752368       5.52458042
Si       2.67620534       3.15752368       9.41344962
Si      -0.00000000       3.15752368      -0.00000000
Si       3.05451757       3.15752368       7.46901502
14
Lattice="6.149117263755467 4.362748323572329e-63 5.0646011114108993e-48 6.497770773985505e-63 6.435695702398792 -1.5015828590058005e-16 -1.866797218907413e-47 1.6004847003120304e-15 14.833199193429413" Properties=species:S:1:pos:R:3 unique_starting_index=9 config_type=initial n_minim_iter=18 pbc="T T T"
Si       2.09603948       1.55267293       6.97170169
Si       4.05307778       1.55267293       7.86149751
Si       5.17059812       4.88302277       0.44489791
Si       0.97851915       4.88302277      14.38830128
Si       4.05307778       4.88302277       7.86149751
Si       2.09603948       4.88302277       6.97170169
Si       0.97851915       1.55267293      14.38830128
Si       5.17059812       1.55267293       0.44489791
Si       0.37938591       3.21784785       1.92924578
Si       5.76973135       3.21784785      12.90395342
Si       3.45394454       3.21784785       5.48735382
Si       2.69517272       3.21784785       9.34584537
Si      -0.00000000       3.21784785      -0.00000000
Si       3.07455863       3.21784785       7.41659960
14
Lattice="6.14585807139762 3.990073279004255e-63 1.9353106219250959e-47 9.181799450669984e-63 6.433776951682153 -1.8081729870415004e-15 -1.861268592437099e-47 -2.427356061089059e-15 14.838760390802008" Properties=species:S:1:pos:R:3 unique_starting_index=9 config_type=initial n_minim_iter=19 pbc="T T T"
Si       2.09529241       1.55392014       6.97347904
Si       4.05056566       1.55392014       7.86528135
Si       5.16822144       4.87985681       0.44590116
Si       0.97763663       4.87985681      14.39285923
Si       4.05056566       4.87985681       7.86528135
Si       2.09529241       4.87985681       6.97347904
Si       0.97763663       1.55392014      14.39285923
Si       5.16822144       1.55392014       0.44590116
Si       0.37830782       3.21688848       1.93017926
Si       5.76755025       3.21688848      12.90858113
Si       3.45123685       3.21688848       5.48920093
Si       2.69462122       3.21688848       9.34955946
Si      -0.00000000       3.21688848      -0.00000000
Si       3.07292904       3.21688848       7.41938020
14
Lattice="6.145269541187004 7.772663586138691e-63 3.3676691781947674e-47 9.752531999216507e-63 6.439124167531065 -2.7360978126153784e-15 1.8883343111424288e-47 -4.686869858543609e-15 14.837832505296277" Properties=species:S:1:pos:R:3 unique_starting_index=9 config_type=initial n_minim_iter=20 pbc="T T T"
Si       2.09545771       1.55714629       6.97196257
Si       4.04981183       1.55714629       7.86586993
Si       5.16809248       4.88197788       0.44695368
Si       0.97717706       4.88197788      14.39087883
Si       4.04981183       4.88197788       7.86586993
Si       2.09545771       4.88197788       6.97196257
Si       0.97717706       1.55714629      14.39087883
Si       5.16809248       1.55714629       0.44695368
Si       0.37714121       3.21956208       1.93019116
Si       5.76812833       3.21956208      12.90764135
Si       3.44977598       3.21956208       5.48872509
Si       2.69549356       3.21956208       9.34910741
Si      -0.00000000       3.21956208      -0.00000000
Si       3.07263477       3.21956208       7.41891625
