4
Lattice="1.9238782120295541 -3.3322548108099563 -8.718670489170232e-18 1.9238782120295543 3.3322548108099563 8.71867048917023e-18 8.323368681019584e-34 1.6437060502812963e-17 6.325358339487341" Properties=species:S:1:pos:R:3 cutoff=-1.0 nneightol=1.2 n_minim_iter=3 pbc="T T T"
Si       1.92387821       1.11075160       0.39567280
Si       1.92387821      -1.11075160       3.55835197
Si       1.92387821       1.11075160       2.76700637
Si       1.92387821      -1.11075160      -0.39567280
