8
Lattice="6.033170166481752 -9.765133731542184e-08 2.665004494483902e-07 -2.9444194763698572 5.265884180733499 -2.665004494483902e-07 -2.9444198093333602 -1.8117336296207982 4.944406486064013" Properties=species:S:1:pos:R:3 unique_starting_index=16 config_type=initial n_minim_iter=1 pbc="T T T"
Si      -1.75536380       1.03442732       2.87763414
Si       3.12459888       1.70124479       1.03831509
Si       1.90388757       1.10563003       2.98978777
Si      -2.98445969       3.06699807       2.98307647
Si       1.90388764       2.42687016       2.06677260
Si      -2.98445975       1.74575794       3.90609165
Si       3.12459882       0.38961110       1.95461923
Si      -1.75536373       2.34606101       1.96133000
8
Lattice="6.085759534546278 -0.0040894067396369605 -0.0058533274236430245 -2.97365435263936 5.309789602855972 0.005853327423642972 -2.9736546881204493 -1.8213431019212964 4.987645456316368" Properties=species:S:1:pos:R:3 unique_starting_index=16 config_type=initial n_minim_iter=2 pbc="T T T"
Si      -1.77354413       1.04516710       2.90411558
Si       3.14977184       1.71316087       1.04426414
Si       1.91625382       1.11462804       3.01393776
Si      -3.01557932       3.09575747       3.01297393
Si       1.91625388       2.44645003       2.08353013
Si      -3.01557939       1.76393548       3.94338157
Si       3.14977178       0.39109722       1.96785462
Si      -1.77354407       2.36723075       1.98052510
8
Lattice="6.358790158360846 -0.02497875805350442 -0.035755146063434565 -3.125136499427867 5.537901956189218 0.03575514606343475 -3.1251368480117314 -1.8717490727037231 5.212119505241866" Properties=species:S:1:pos:R:3 unique_starting_index=16 config_type=initial n_minim_iter=3 pbc="T T T"
Si      -1.86684406       1.10030187       3.04203586
Si       3.28043758       1.77536803       1.07431172
Si       1.97997696       1.16070455       3.13976261
Si      -3.17653558       3.24597307       3.16812933
Si       1.97997702       2.54874069       2.17008390
Si      -3.17653565       1.85793693       4.13780804
Si       3.28043751       0.39790796       2.03660201
Si      -1.86684400       2.47776194       2.07974558
8
Lattice="6.471772193735869 -0.010350532810447 -0.01481572293055151 -3.1675082456504193 5.643654310362995 0.014815722930551226 -3.167508601845986 -1.9277943805101303 5.304211539003081" Properties=species:S:1:pos:R:3 unique_starting_index=16 config_type=initial n_minim_iter=4 pbc="T T T"
Si      -1.88137301       1.10904337       3.09523931
Si       3.34516026       1.81808378       1.09476624
Si       2.02293596       1.17797959       3.20564867
Si      -3.21321123       3.30591130       3.21276940
Si       2.02293603       2.60466096       2.20897250
Si      -3.21321130       1.87922993       4.20944557
Si       3.34516019       0.40241732       2.08374742
Si      -1.88137294       2.52470983       2.10625813
8
Lattice="6.611993846113768 0.03684003623183337 0.0527347184747516 -3.1947528408689485 5.7890736819525515 -0.05273471847475145 -3.194753209243302 -2.0412526303719876 5.41751238031604" Properties=species:S:1:pos:R:3 unique_starting_index=16 config_type=initial n_minim_iter=5 pbc="T T T"
Si      -1.86872318       1.10176309       3.15786694
Si       3.43792179       1.89297291       1.12891660
Si       2.09614044       1.19575076       3.30443327
Si      -3.22036213       3.37883465       3.24380851
Si       2.09614051       2.69130064       2.25964572
Si      -3.22036220       1.88328476       4.28859606
Si       3.43792172       0.40871713       2.16581411
Si      -1.86872311       2.58601887       2.12096943
8
Lattice="6.615307933088172 0.08932177313258899 0.12785913592239256 -3.1505630233574062 5.817579399078958 -0.12785913592239234 -3.1505633968526223 -2.121598197853121 5.418431208076052" Properties=species:S:1:pos:R:3 unique_starting_index=16 config_type=initial n_minim_iter=6 pbc="T T T"
Si      -1.80916994       1.06629815       3.15552578
Si       3.46203449       1.93378850       1.13891691
Si       2.12781529       1.18666225       3.33871207
Si      -3.15231549       3.38385628       3.20370825
Si       2.12781536       2.72661365       2.26290572
Si      -3.15231557       1.84390488       4.27951460
Si       3.46203442       0.40406426       2.20757857
Si      -1.80916986       2.59602238       2.08686412
8
Lattice="6.604328863369359 0.08675021775392441 0.12417810992376492 -3.1474493248626834 5.806741606377488 -0.12417810992376543 -3.1474496975100226 -2.114413140203193 5.409521514235648" Properties=species:S:1:pos:R:3 unique_starting_index=16 config_type=initial n_minim_iter=7 pbc="T T T"
Si      -1.78796931       1.05286367       3.16318002
Si       3.45196690       1.93168137       1.10901580
Si       2.10099098       1.16914033       3.33838735
Si      -3.14612758       3.40447123       3.20846045
Si       2.10099106       2.73233720       2.24634179
Si      -3.14612765       1.84127436       4.30050601
Si       3.45196683       0.37671355       2.19531257
Si      -1.78796923       2.60783149       2.07688325
8
Lattice="6.500332050449599 0.03181348323705066 0.04553950579096152 -3.144644870776549 5.689159648007491 -0.04553950579096226 -3.1446452325154777 -2.0001211427225543 5.326173531387947" Properties=species:S:1:pos:R:3 unique_starting_index=16 config_type=initial n_minim_iter=8 pbc="T T T"
Si      -1.75057105       1.02826487       3.16198039
Si       3.36214202       1.87109449       0.98827728
Si       1.96288091       1.10493990       3.27482909
Si      -3.15236668       3.43740396       3.22726086
Si       1.96288099       2.69474737       2.16419342
Si      -3.15236676       1.84759649       4.33789653
Si       3.36214194       0.28419101       2.09688422
Si      -1.75057098       2.61516835       2.05337344
8
Lattice="6.515879116080946 0.178610906428513 0.2556710977219332 -3.0241044030018367 5.774372266404371 -0.25567109772193397 -3.024104779410833 -2.226741898668691 5.333887983576641" Properties=species:S:1:pos:R:3 unique_starting_index=16 config_type=initial n_minim_iter=9 pbc="T T T"
Si      -1.60585279       0.94263923       3.16188497
Si       3.42332818       1.99186177       1.03867586
Si       2.07414486       1.08133798       3.36194092
Si      -2.95627908       3.43664281       3.10527484
Si       2.07414494       2.78466134       2.17200332
Si      -2.95627916       1.73331945       4.29521243
Si       3.42332810       0.28996267       2.22761847
Si      -1.60585271       2.64453833       1.97294236
8
Lattice="6.477556051885181 0.01569818715683607 0.02247143719387906 -3.147595092823649 5.661415368088342 -0.022471437193880218 -3.1475954517893228 -1.968915906976332 5.30805961034865" Properties=species:S:1:pos:R:3 unique_starting_index=16 config_type=initial n_minim_iter=10 pbc="T T T"
Si      -1.73409220       1.01775354       3.18078799
Si       3.32957629       1.86156696       0.94078526
Si       1.91698763       1.07144258       3.25893267
Si      -3.14773941       3.46563146       3.23561386
Si       1.91698770       2.69134620       2.12727190
Si      -3.14773949       1.84572784       4.36727462
Si       3.32957622       0.24287630       2.07159865
Si      -1.73409212       2.63644419       2.04997459
8
Lattice="6.455845336444648 0.05721519110500331 0.08190050402678425 -3.100762469170992 5.66272767277113 -0.08190050402678538 -3.1007628308447757 -2.025168385868154 5.288845162649293" Properties=species:S:1:pos:R:3 unique_starting_index=16 config_type=initial n_minim_iter=11 pbc="T T T"
Si      -1.69195450       0.99299917       3.16313114
Si       3.33550050       1.88691258       0.95928846
Si       1.94677117       1.06610108       3.26898295
Si      -3.08167581       3.44353537       3.18628834
Si       1.94677125       2.70262067       2.12571430
Si      -3.08167589       1.80701578       4.32955698
Si       3.33550042       0.25152971       2.10176300
Si      -1.69195442       2.62838205       2.02065660
8
Lattice="6.483003645806156 0.044242282272745063 0.06333057518487697 -3.125339811536448 5.6801007661398 -0.06333057518487761 -3.1253401734884574 -2.013709365797035 5.311546648850062" Properties=species:S:1:pos:R:3 unique_starting_index=16 config_type=initial n_minim_iter=12 pbc="T T T"
Si      -1.70879042       1.00285245       3.18091269
Si       3.34284766       1.88558205       0.95370671
Si       1.94159154       1.06866556       3.27628422
Si      -3.11100017       3.46416655       3.21219024
Si       1.94159162       2.70859389       2.13063424
Si      -3.11100025       1.82423821       4.35784022
Si       3.34284759       0.24674649       2.09859329
Si      -1.70879034       2.64168802       2.03602612
8
Lattice="6.47960587290043 0.04388851855909705 0.06282418369707962 -3.1239903402890996 5.676962464555094 -0.06282418369708002 -3.1239907020203046 -2.012154152834021 5.3087741623813445" Properties=species:S:1:pos:R:3 unique_starting_index=16 config_type=initial n_minim_iter=13 pbc="T T T"
Si      -1.70743583       1.00191103       3.18062225
Si       3.34019450       1.88493841       0.95172822
Si       1.93940993       1.06675271       3.27429039
Si      -3.10891764       3.46379075       3.21090802
Si       1.93941000       2.70737990       2.12815219
Si      -3.10891772       1.82316357       4.35704622
Si       3.34019442       0.24511023       2.09730824
Si      -1.70743575       2.64173921       2.03504224
8
Lattice="6.475969679847715 0.040859834893174234 0.058488806827960566 -3.1248592400665256 5.672310600644611 -0.05848880682796088 -3.124859601312087 -2.0064829675732003 5.305897881967279" Properties=species:S:1:pos:R:3 unique_starting_index=16 config_type=initial n_minim_iter=14 pbc="T T T"
Si      -1.70831799       1.00231977       3.18079551
Si       3.33620340       1.88222659       0.94825825
Si       1.93482322       1.06477695       3.27081884
Si      -3.11020567       3.46405087       3.21192372
Si       1.93482330       2.70480005       2.12510265
Si      -3.11020574       1.82402776       4.35763991
Si       3.33620333       0.24278510       2.09356813
Si      -1.70831791       2.64176126       2.03548564
8
Lattice="6.474116979752604 0.040498367362114894 0.0579713878977232 -3.1242705479167734 5.670517112988882 -0.057971387897723506 -3.124270909026076 -2.005380085128507 5.304391903722622" Properties=species:S:1:pos:R:3 unique_starting_index=16 config_type=initial n_minim_iter=15 pbc="T T T"
Si      -1.70745227       1.00173618       3.18114959
Si       3.33437394       1.88192729       0.94664037
Si       1.93321603       1.06323043       3.26963311
Si      -3.10898536       3.46437613       3.21136130
Si       1.93321610       2.70421879       2.12324260
Si      -3.10898543       1.82338778       4.35775181
Si       3.33437386       0.24136897       2.09273047
Si      -1.70745219       2.64229451       2.03505949
8
Lattice="6.4711384830687315 0.03828810111963749 0.05480752588192129 -3.124746096040762 5.666838720222981 -0.05480752588192152 -3.124746456777723 -2.0011438186996298 5.302026603891107" Properties=species:S:1:pos:R:3 unique_starting_index=16 config_type=initial n_minim_iter=16 pbc="T T T"
Si      -1.70806871       1.00205439       3.18107007
Si       3.33129317       1.87982039       0.94415947
Si       1.92986502       1.06178439       3.26693578
Si      -3.10979632       3.46430609       3.21188844
Si       1.92986510       2.70218364       2.12095681
Si      -3.10979640       1.82390683       4.35786741
Si       3.33129309       0.23976441       2.08989863
Si      -1.70806864       2.64211037       2.03533092
8
Lattice="6.4698481332093225 0.03763232863958905 0.053868827339054896 -3.1246887283256566 5.66539243212909 -0.05386882733905531 -3.1246890889297037 -1.999764829760866 5.300991570704961" Properties=species:S:1:pos:R:3 unique_starting_index=16 config_type=initial n_minim_iter=17 pbc="T T T"
Si      -1.70780250       1.00186340       3.18145669
Si       3.32978894       1.87932490       0.94279021
Si       1.92839279       1.06065042       3.26589838
Si      -3.10943731       3.46468038       3.21183841
Si       1.92839287       2.70159972       2.11953516
Si      -3.10943739       1.82373108       4.35820164
Si       3.32978887       0.23864921       2.08896229
Si      -1.70780242       2.64253909       2.03528461
8
Lattice="6.466726756433682 0.03549467772511072 0.05080890974305862 -3.125031165199489 5.661624769538688 -0.05080890974305922 -3.125031525430142 -1.9955954486605145 5.298506688698675" Properties=species:S:1:pos:R:3 unique_starting_index=16 config_type=initial n_minim_iter=18 pbc="T T T"
Si      -1.70818300       1.00204819       3.18157946
Si       3.32647026       1.87734138       0.94009266
Si       1.92493352       1.05888245       3.26314410
Si      -3.10989136       3.46477522       3.21219770
Si       1.92493360       2.69962186       2.11692750
Si      -3.10989144       1.82403581       4.35841431
Si       3.32647018       0.23679878       2.08617177
Si      -1.70818292       2.64259079       2.03550035
8
Lattice="6.463540372001186 0.03346129174850774 0.047898241065402664 -3.125250871091614 5.657851252134134 -0.04789824106540332 -3.1252512309550946 -1.9915641906190003 5.295964960051156" Properties=species:S:1:pos:R:3 unique_starting_index=16 config_type=initial n_minim_iter=19 pbc="T T T"
Si      -1.70793595       1.00185055       3.18264960
Si       3.32251410       1.87581225       0.93655074
Si       1.92101465       1.05606099       3.26034609
Si      -3.10951497       3.46577217       3.21238404
Si       1.92101473       2.69796539       2.11331563
Si      -3.10951505       1.82386777       4.35941449
Si       3.32251402       0.23399919       2.08351739
Si      -1.70793587       2.64366360       2.03568296
8
Lattice="6.458030674982941 0.029022120769309722 0.04154383719201357 -3.126436533274062 5.650875780436498 -0.04154383719201429 -3.1264368924157915 -1.9831977981521853 5.291601574577307" Properties=species:S:1:pos:R:3 unique_starting_index=16 config_type=initial n_minim_iter=20 pbc="T T T"
Si      -1.70967369       1.00285346       3.18228595
Si       3.31676981       1.87152705       0.93221602
Si       1.91485708       1.05370763       3.25514326
Si      -3.11163741       3.46531130       3.21355848
Si       1.91485716       2.69388986       2.10931590
Si      -3.11163749       1.82512908       4.35938583
Si       3.31676973       0.23140342       2.07800243
Si      -1.70967362       2.64297709       2.03649953
8
Lattice="6.459247286019983 0.03006015558348746 0.043029721032348665 -3.126124266592438 5.652444266397686 -0.04302972103234954 -3.126124625898978 -1.9851326095617199 5.292563085840831" Properties=species:S:1:pos:R:3 unique_starting_index=16 config_type=initial n_minim_iter=21 pbc="T T T"
Si      -1.70881048       1.00234259       3.18323265
Si       3.31748240       1.87286527       0.93245361
Si       1.91583104       1.05331700       3.25625238
Si      -3.11050489       3.46621801       3.21318808
Si       1.91583112       2.69506568       2.10933071
Si      -3.11050496       1.82446933       4.36010975
Si       3.31748232       0.23116609       2.07934070
Si      -1.70881040       2.64404177       2.03634556
8
Lattice="6.458116963807747 0.029106114839165916 0.04166406960477005 -3.1264053336636506 5.650992087570275 -0.04166406960477132 -3.1264056928180444 -1.9833507060911122 5.291669415165811" Properties=species:S:1:pos:R:3 unique_starting_index=16 config_type=initial n_minim_iter=22 pbc="T T T"
Si      -1.70913978       1.00253269       3.18333145
Si       3.31617015       1.87202100       0.93141840
Si       1.91446522       1.05266688       3.25514195
Si      -3.11088242       3.46627367       3.21344758
Si       1.91446530       2.69424671       2.10833824
Si      -3.11088250       1.82469384       4.36025129
Si       3.31617007       0.23048456       2.07819181
Si      -1.70913971       2.64406913       2.03655804
8
Lattice="6.456501424040111 0.02770227928018137 0.03965456419993273 -3.126842186733861 5.648896882947207 -0.03965456419993394 -3.1268425456670093 -1.9807430215656694 5.290393493540604" Properties=species:S:1:pos:R:3 unique_starting_index=16 config_type=initial n_minim_iter=23 pbc="T T T"
Si      -1.70951579       1.00274755       3.18377783
Si       3.31407476       1.87090431       0.92968111
Si       1.91234702       1.05143323       3.25350276
Si      -3.11127132       3.46662643       3.21382583
Si       1.91234710       2.69313203       2.10661593
Si      -3.11127139       1.82492764       4.36071266
Si       3.31407468       0.22923752       2.07654557
Si      -1.70951572       2.64441434       2.03691337
8
Lattice="6.429595672586944 0.002222247408332412 0.0031814451043624113 -3.135950678645185 5.612977711735286 -0.003181445104363684 -3.1359510336960428 -1.934138520317087 5.269215773852085" Properties=species:S:1:pos:R:3 unique_starting_index=16 config_type=initial n_minim_iter=24 pbc="T T T"
Si      -1.71740362       1.00729663       3.19290606
Si       3.27727232       1.85130687       0.89901205
Si       1.87504438       1.02967241       3.22480468
Si      -3.11952388       3.47384622       3.22170930
Si       1.87504446       2.67367278       2.07630998
Si      -3.11952396       1.82984585       4.37020399
Si       3.27727224       0.20718331       2.04759281
Si      -1.71740354       2.65142018       2.04432530
