22
Lattice="5.360093987419245 -0.34406849989260174 0.6769369542342855 2.259904097985293 5.563762598996385 1.1243119936875978 2.7575713139837097 2.052468335306886 16.928338368926294" Properties=species:S:1:pos:R:3 unique_starting_index=40 config_type=initial n_minim_iter=1 energy=-3592.85637709806 free_energy=-3592.85637709806 pbc="T T T"
Si       9.19831352       3.22999514      15.05508733
Si       2.99350407       2.61608534       5.04993526
Si       5.62040097       1.26055706       7.79297020
Si       5.45114468       4.57480899      15.01950609
Si       5.50668490       3.52627485      16.76693128
Si       5.89706618       6.38944394       9.12002439
Si       5.47739586       1.95165454       2.80892818
Si       5.71276536       4.56601697      11.17563207
Si       4.13627387       2.08233447       1.18082972
Si       5.94740395       5.49741579      16.94091637
Si       5.25869042       2.63317712      11.50495619
Si       4.64466838       4.62369858      12.88195507
Si       1.96448754       2.61832616       1.40340924
Si       1.62140227       0.62441121       8.23135476
Si       3.92844271       1.93253314      15.56412476
Si       7.27591551       5.42500759      10.22086841
Si       4.08836845       3.99144191       5.97609121
Si       4.53455456       7.45025498       7.89881983
Si       4.89550474       2.94314490       4.47597997
Si       5.73971161       1.58304916       9.82679537
Si       7.41913890       3.21144304      16.17155773
Si       4.27127974       2.06159241       6.50172434
22
Lattice="5.351452452625842 -0.34005694592192515 0.6726695556426704 2.2582931457058755 5.554295724221676 1.1292903138080366 2.7455438547604536 2.073069687777516 16.9042896892668" Properties=species:S:1:pos:R:3 unique_starting_index=40 config_type=initial n_minim_iter=2 stress="-0.01639096789696666 -0.003108411032801121 0.001098425096435323 -0.003108411032801121 -0.011737763937265512 0.001595895788549579 0.001098425096435323 0.001595895788549579 -0.01107399357275879" pbc="T T T"
Si       9.17698550       3.24749027      15.03273478
Si       2.98743050       2.61868545       5.04405932
Si       5.60878960       1.27140151       7.78025206
Si       5.43755603       4.58864565      15.00089307
Si       5.49195597       3.54527014      16.74397511
Si       5.88628644       6.39131958       9.11208713
Si       5.46827494       1.95370172       2.80466204
Si       5.70020313       4.57401667      11.16244021
Si       4.12967308       2.08147479       1.17922583
Si       5.93212443       5.51137098      16.92021151
Si       5.24600972       2.64624557      11.48850017
Si       4.63330198       4.63391110      12.86617390
Si       1.96220504       2.61541387       1.40374681
Si       1.61515197       0.63562790       8.21869016
Si       3.91537610       1.95198599      15.54137860
Si       7.26156369       5.43040765      10.20932632
Si       4.08093803       3.99326776       5.97105686
Si       4.52652741       7.44684852       7.89560017
Si       4.88717079       2.94491898       4.47055028
Si       5.72659008       1.59630294       9.81127532
Si       7.40075499       3.23064409      16.14784034
Si       4.26197240       2.06826385       6.49264420
22
Lattice="5.36210063791354 -0.3295795788871494 0.6658451894010906 2.2713761609986793 5.558853842090146 1.138341166664908 2.7343675381603316 2.110851169641624 16.916473894350254" Properties=species:S:1:pos:R:3 unique_starting_index=40 config_type=initial n_minim_iter=3 stress="0.01272440893209648 0.010319893072863982 -0.01404753772570005 0.010319893072863982 -0.007881961883654993 0.011354041565687594 -0.01404753772570005 0.011354041565687594 0.002292713107141412" pbc="T T T"
Si       9.17966858       3.28886583      15.04044978
Si       2.99163387       2.63267590       5.04615959
Si       5.61598266       1.29749030       7.78129771
Si       5.44135871       4.62772138      15.01527852
Si       5.49275461       3.58949355      16.75640310
Si       5.89898797       6.41933339       9.12275124
Si       5.47930145       1.96765586       2.80395551
Si       5.70670521       4.60375124      11.17257384
Si       4.13874582       2.09087283       1.17669503
Si       5.93435386       5.55129827      16.93556838
Si       5.24843042       2.67786750      11.49468933
Si       4.63719594       4.66643467      12.87623575
Si       1.97076711       2.62037467       1.40651201
Si       1.61099384       0.65528313       8.22264175
Si       3.90877808       1.98910265      15.55122238
Si       7.27315610       5.45852517      10.21889920
Si       4.09005988       4.01348476       5.97993052
Si       4.53796904       7.46644309       7.91286905
Si       4.89848378       2.95996312       4.47190386
Si       5.72994436       1.62700141       9.81423233
Si       7.40237168       3.27523001      16.15583933
Si       4.26592403       2.08741986       6.49631381
22
Lattice="5.354190126818909 -0.3351717683079949 0.6762210371940782 2.264421139734546 5.559958292498752 1.1388355311484524 2.760954892381233 2.0997075779348107 16.91057880435901" Properties=species:S:1:pos:R:3 unique_starting_index=40 config_type=initial n_minim_iter=4 stress="-0.004109069373576217 0.004084286446502235 0.0017037318633497881 0.004084286446502235 -0.00021451042656736658 0.005804332393522081 0.0017037318633497881 0.005804332393522081 -0.0021925512926388815" pbc="T T T"
Si       9.18552013       3.27127049      15.05005845
Si       2.99301222       2.62822358       5.04446485
Si       5.62210741       1.29019330       7.78723756
Si       5.45873393       4.61787196      15.01588742
Si       5.51611284       3.57944562      16.75598981
Si       5.90011493       6.41490586       9.12392393
Si       5.47244898       1.96198204       2.81208689
Si       5.71414512       4.59436411      11.17493803
Si       4.12982046       2.08798942       1.18093014
Si       5.95218726       5.53774265      16.93364917
Si       5.25962932       2.66830153      11.49615682
Si       4.65153049       4.65771411      12.87294350
Si       1.96878826       2.61893817       1.40705852
Si       1.62519915       0.64985032       8.22006510
Si       3.93125283       1.97728052      15.54908859
Si       7.27451860       5.44642302      10.22508914
Si       4.09181595       4.01167586       5.98345978
Si       4.53715530       7.46104902       7.91510821
Si       4.89620249       2.95366920       4.47609878
Si       5.73741388       1.61870764       9.81878956
Si       7.41733177       3.26194743      16.15865863
Si       4.26779556       2.08028591       6.50015782
22
Lattice="5.356735952316029 -0.3439587373238456 0.6711556505868428 2.2558191661472793 5.546171912577027 1.1278057962266352 2.742058159914715 2.066531513556795 16.900400847094318" Properties=species:S:1:pos:R:3 unique_starting_index=40 config_type=initial n_minim_iter=5 stress="-0.0012458278857291095 -0.003283002436968302 -0.005528667809200118 -0.003283002436968302 -0.014985892774593347 -0.0032840790792299686 -0.005528667809200118 -0.0032840790792299686 -0.00048326677037223274" pbc="T T T"
Si       9.16765678       3.22902265      15.03350081
Si       2.98516918       2.61147502       5.03489738
Si       5.61622620       1.26881310       7.77844585
Si       5.43931992       4.57958261      15.00033910
Si       5.49766542       3.54109362      16.74092302
Si       5.88459824       6.38301888       9.10588812
Si       5.46866267       1.94584000       2.80284010
Si       5.69896396       4.56115262      11.15875158
Si       4.12723007       2.07656822       1.17299121
Si       5.92977359       5.49457166      16.91370692
Si       5.24673564       2.63831151      11.48361934
Si       4.63377371       4.62298363      12.85849473
Si       1.96493018       2.60890774       1.40030002
Si       1.61728568       0.63380236       8.21575449
Si       3.91505365       1.94345979      15.53917824
Si       7.25898105       5.41038021      10.20684807
Si       4.08265308       3.99034462       5.97222895
Si       4.51916079       7.42984208       7.89818596
Si       4.88958323       2.93428887       4.46544365
Si       5.72755953       1.59331478       9.80760686
Si       7.39991166       3.22173469      16.14164723
Si       4.25860683       2.06164609       6.49035564
22
Lattice="5.357287109383388 -0.3534932699171293 0.6659031033012216 2.246209695399509 5.555443411984723 1.1233591216172458 2.7291139916748497 2.067987316885363 16.845619505320673" Properties=species:S:1:pos:R:3 unique_starting_index=40 config_type=initial n_minim_iter=6 stress="-0.002378405664537992 -0.0006002731172376971 -0.006090161491226408 -0.0006002731172376971 0.0011269800442783807 0.00044584154822731726 -0.006090161491226408 0.00044584154822731726 -0.006897308251006263" pbc="T T T"
Si       9.14590548       3.22335054      14.98585652
Si       2.97669059       2.60987840       5.01312171
Si       5.61374202       1.26713404       7.75467030
Si       5.42327945       4.58223778      14.95294954
Si       5.48435058       3.54268177      16.68279930
Si       5.87331438       6.39211975       9.07504428
Si       5.46208793       1.93981911       2.79019152
Si       5.68685678       4.56358050      11.11775327
Si       4.12498799       2.07588036       1.16835916
Si       5.91288846       5.50164081      16.85192485
Si       5.23624743       2.63340468      11.44382766
Si       4.61862109       4.62229856      12.81937848
Si       1.96189370       2.60823146       1.39347003
Si       1.61292529       0.63291502       8.19083234
Si       3.90560607       1.93830957      15.49199809
Si       7.24240995       5.40969444      10.16852826
Si       4.07804265       3.99481452       5.95322123
Si       4.50048682       7.43821366       7.87353833
Si       4.88192455       2.93190945       4.44921361
Si       5.71850707       1.59191876       9.77090575
Si       7.38668398       3.22172508      16.08418771
Si       4.24516498       2.06407454       6.46453423
22
Lattice="5.360769536122715 -0.3549002006365344 0.6719716129202261 2.246472847070728 5.547990460946742 1.1276286133319222 2.7476459831271898 2.0678290304640505 16.860476821294203" Properties=species:S:1:pos:R:3 unique_starting_index=40 config_type=initial n_minim_iter=7 stress="0.008398864965445252 -0.0011517984816134816 0.0051943556772585065 -0.0011517984816134816 -0.010124675619935635 0.005395649222288362 0.0051943556772585065 0.005395649222288362 -7.337262156304016e-05" pbc="T T T"
Si       9.16152686       3.21924275      15.00907053
Si       2.98148425       2.60602476       5.01815833
Si       5.62507902       1.26708602       7.76764378
Si       5.43986127       4.57770127      14.97072123
Si       5.50337768       3.53945169      16.69906408
Si       5.88521007       6.38543765       9.08922032
Si       5.46643650       1.93514963       2.79764755
Si       5.69952771       4.55706855      11.13192822
Si       4.12881223       2.07360739       1.17502011
Si       5.93269029       5.49629935      16.86899653
Si       5.25026683       2.63021594      11.45750843
Si       4.63289767       4.61514299      12.83536288
Si       1.96407985       2.60291983       1.39636227
Si       1.62236513       0.63286573       8.19967877
Si       3.92449594       1.93639326      15.50875649
Si       7.25471766       5.40194445      10.18299878
Si       4.08675051       3.98983850       5.96261839
Si       4.50761746       7.42853872       7.88564699
Si       4.88771681       2.92681404       4.45842905
Si       5.73073707       1.59100725       9.78236251
Si       7.40664558       3.21996151      16.10254289
Si       4.25188571       2.06237300       6.47373096
22
Lattice="5.3445325449914485 -0.3549625537034571 0.6668800994165641 2.239718180268761 5.549646540847571 1.1187799956289382 2.7200646065899017 2.0465583235283686 16.874402325274296" Properties=species:S:1:pos:R:3 unique_starting_index=40 config_type=initial n_minim_iter=8 stress="-0.009220443841860632 0.006390581743953642 0.0002471053717069503 0.006390581743953642 -0.0015611660092052873 -0.0015733379438000266 0.0002471053717069503 -0.0015733379438000266 0.010475037944567814" pbc="T T T"
Si       9.10900101       3.20271635      15.01879627
Si       2.96535845       2.60100208       5.01283127
Si       5.60086837       1.26377289       7.77152110
Si       5.40592906       4.56111113      14.97729500
Si       5.46815992       3.51839587      16.70382918
Si       5.86276314       6.38114352       9.08586433
Si       5.44667611       1.93127398       2.78993033
Si       5.66899828       4.54240442      11.13217794
Si       4.11845719       2.07872615       1.17047900
Si       5.89955156       5.47606923      16.87073072
Si       5.22250590       2.61633890      11.46094341
Si       4.60569242       4.59478701      12.84173435
Si       1.95880535       2.59844696       1.39047878
Si       1.60769659       0.62143190       8.21067023
Si       3.89826969       1.91558087      15.52367330
Si       7.22339243       5.39155699      10.17555922
Si       4.07201853       3.98552353       5.95851150
Si       4.48527237       7.42201656       7.87977136
Si       4.86838702       2.92166581       4.45491534
Si       5.70206634       1.58227790       9.78035493
Si       7.36767561       3.20562647      16.10549303
Si       4.23014405       2.05625028       6.47433630
22
Lattice="5.350336754472407 -0.3685791747393465 0.658989211803365 2.2274603009974316 5.552004388224505 1.1113939848415384 2.7008897124425553 2.0400920931473516 16.807974619458935" Properties=species:S:1:pos:R:3 unique_starting_index=40 config_type=initial n_minim_iter=9 stress="-0.0028803843189383303 0.0024973074636220356 0.0014547770060925208 0.0024973074636220356 0.0005315236645468117 -0.0012771750290618918 0.0014547770060925208 -0.0012771750290618918 -0.004634751038893083" pbc="T T T"
Si       9.08665084       3.18350752      14.96016013
Si       2.95483533       2.59737942       4.98769772
Si       5.59577576       1.25674358       7.73963183
Si       5.38351572       4.55255742      14.91603401
Si       5.44819853       3.50568493      16.63182759
Si       5.84750363       6.37939402       9.04589443
Si       5.44395770       1.91812171       2.77137529
Si       5.65012108       4.53046798      11.08489544
Si       4.11843999       2.07739672       1.16254435
Si       5.87871703       5.46393433      16.79723686
Si       5.21041672       2.60428994      11.41204708
Si       4.58709023       4.58023029      12.79140591
Si       1.95496892       2.59256761       1.38068228
Si       1.59940776       0.61632957       8.18232885
Si       3.88564977       1.90593675      15.46502259
Si       7.20933633       5.37891861      10.12569026
Si       4.06325474       3.98110867       5.92944197
Si       4.46255308       7.42028599       7.84395046
Si       4.86190141       2.91143016       4.43337058
Si       5.69323247       1.57199568       9.73231965
Si       7.35252965       3.19474166      16.03362360
Si       4.22203367       2.04796311       6.44667127
22
Lattice="5.344586741765053 -0.3854891975248567 0.6550359318406674 2.205496810027162 5.55312626993935 1.1211287619583152 2.676526108991974 2.062882353076686 16.838918117953046" Properties=species:S:1:pos:R:3 unique_starting_index=40 config_type=initial n_minim_iter=10 stress="-0.012459458524619545 -0.006037134592080545 0.0006654155715199762 -0.006037134592080545 0.0041724463043928545 0.004077691249497624 0.0006654155715199762 0.004077691249497624 0.004369286699517328" pbc="T T T"
Si       9.04567928       3.18455275      14.99131649
Si       2.93678460       2.60061202       4.99802378
Si       5.57806947       1.25881981       7.75155960
Si       5.34669579       4.56758415      14.94512970
Si       5.41733171       3.51754773      16.66197782
Si       5.81193399       6.38794647       9.07009730
Si       5.42906795       1.90535028       2.77248670
Si       5.61708768       4.53651705      11.10882972
Si       4.10613609       2.07389131       1.16432636
Si       5.84230971       5.47720117      16.82881488
Si       5.18558266       2.60657290      11.43299744
Si       4.55624537       4.58340719      12.82176041
Si       1.94427694       2.58709315       1.38360558
Si       1.58861861       0.62692003       8.19955718
Si       3.86518216       1.92279590      15.49602283
Si       7.17598812       5.37628417      10.14486876
Si       4.04167167       3.98106480       5.94175615
Si       4.42496868       7.42782572       7.86605526
Si       4.84343654       2.90379651       4.44172560
Si       5.67199558       1.57528872       9.74408925
Si       7.31882344       3.20793053      16.05863627
Si       4.20483807       2.05093559       6.45705059
22
Lattice="5.347693719063961 -0.38365691864840745 0.6567711176026843 2.209596397212118 5.5492518389360646 1.1150122149430146 2.6858907453415837 2.0454017486405154 16.817486818203847" Properties=species:S:1:pos:R:3 unique_starting_index=40 config_type=initial n_minim_iter=11 stress="-0.011973845210252519 0.0011348512421941875 0.0031875696612706462 0.0011348512421941875 -3.760642664139006e-05 -0.0021857729196839014 0.0031875696612706462 -0.0021857729196839014 -0.004695555323109408" pbc="T T T"
Si       9.05175500       3.17192715      14.98078581
Si       2.93931335       2.59589218       4.99076441
Si       5.58477681       1.25820545       7.74308137
Si       5.35495234       4.55368653      14.92320543
Si       5.43133828       3.49612815      16.64086804
Si       5.82115081       6.38103876       9.05869025
Si       5.43490099       1.90199005       2.76701808
Si       5.62424975       4.52549674      11.09557435
Si       4.10998382       2.07853822       1.16159290
Si       5.85784193       5.45628581      16.80202004
Si       5.19407773       2.59031415      11.41913658
Si       4.56769131       4.55782146      12.80651853
Si       1.94844461       2.57972259       1.37721904
Si       1.59315466       0.62121744       8.19246333
Si       3.87882964       1.90787559      15.48094647
Si       7.18739611       5.36230082      10.12776503
Si       4.05048032       3.97213872       5.92900322
Si       4.43328368       7.41684527       7.84933357
Si       4.85014766       2.89635374       4.43495433
Si       5.67890853       1.57014020       9.73023381
Si       7.32896363       3.19933064      16.03641016
Si       4.21198885       2.04862551       6.44672130
22
Lattice="5.361688298182025 -0.39990128303397365 0.648628234655185 2.1947093727808453 5.523158432387446 1.1193101183184455 2.659334311437065 2.0489828191687414 16.83370936855879" Properties=species:S:1:pos:R:3 unique_starting_index=40 config_type=initial n_minim_iter=12 stress="-0.003117307301782777 9.136779246093255e-05 0.00306720863215367 9.136779246093255e-05 0.006328145277330357 0.0005914220338401082 0.00306720863215367 0.0005914220338401082 -0.0007015264867857614" pbc="T T T"
Si       9.02943793       3.15024525      15.00519503
Si       2.92246839       2.58161969       4.99601388
Si       5.58089992       1.25620772       7.73912276
Si       5.31919556       4.54355734      14.93175363
Si       5.41399518       3.47194556      16.66036215
Si       5.79895193       6.35904874       9.08269855
Si       5.44292675       1.87677424       2.75739818
Si       5.59739357       4.50198013      11.11443831
Si       4.11302733       2.06790310       1.15779444
Si       5.83177696       5.43690817      16.80313237
Si       5.18104634       2.56693177      11.42766261
Si       4.55020289       4.50268456      12.82714173
Si       1.94609804       2.54995010       1.36915121
Si       1.58056516       0.63756646       8.20444826
Si       3.87118381       1.90677145      15.50679340
Si       7.16881174       5.32672509      10.12425711
Si       4.04641688       3.96322269       5.92079514
Si       4.40882796       7.38467513       7.85522315
Si       4.84821493       2.86303040       4.43252866
Si       5.66971474       1.56540012       9.73115092
Si       7.30156378       3.20454955      16.04142491
Si       4.21130155       2.03169962       6.44573344
22
Lattice="5.3720968285419115 -0.4145659722536574 0.639971187676228 2.180194958294039 5.496473673679112 1.1205147359376006 2.6270975427826873 2.0420040187304465 16.866866013699756" Properties=species:S:1:pos:R:3 unique_starting_index=40 config_type=initial n_minim_iter=13 stress="0.011855139864923163 -0.0039854387989742305 0.005653882217007166 -0.0039854387989742305 0.006747328471232943 -0.0028930999858434087 0.005653882217007166 -0.0028930999858434087 0.0014093270055239016" pbc="T T T"
Si       8.99893854       3.11387095      15.03869705
Si       2.91617996       2.56833349       5.00461493
Si       5.57495946       1.24302258       7.74338293
Si       5.28406882       4.52612576      14.96097164
Si       5.37336468       3.44307755      16.69394564
Si       5.76786783       6.33668849       9.10754716
Si       5.45051646       1.85382937       2.74954365
Si       5.56988798       4.47707842      11.13953050
Si       4.11700263       2.05377281       1.15646496
Si       5.79277975       5.40219725      16.81768304
Si       5.16209972       2.53607870      11.44798399
Si       4.53196333       4.44016266      12.85226302
Si       1.94353286       2.52113585       1.35874223
Si       1.55852487       0.65471118       8.22253367
Si       3.85865015       1.90381902      15.54810267
Si       7.14611728       5.28814150      10.12993026
Si       4.04001382       3.94552055       5.90817299
Si       4.38600590       7.34731609       7.86702567
Si       4.83636031       2.82767195       4.43460513
Si       5.65512265       1.55204467       9.74113285
Si       7.27162581       3.20147190      16.06124320
Si       4.19907446       2.01152883       6.44706351
22
Lattice="5.377508705656567 -0.42046127720869925 0.6268156858470102 2.1728314988149506 5.479233656691499 1.1178209040668974 2.5815579046417714 2.035712030971516 16.89944628520186" Properties=species:S:1:pos:R:3 unique_starting_index=40 config_type=initial n_minim_iter=14 stress="0.02320365828034415 -0.001030486765704024 -0.0014373615991133725 -0.001030486765704024 0.006057147983226487 -0.005936879085883396 -0.0014373615991133725 -0.005936879085883396 0.008429400216277926" pbc="T T T"
Si       8.96170186       3.09632594      15.05137280
Si       2.90318682       2.55840453       5.00088167
Si       5.55820133       1.23424012       7.74657688
Si       5.24322038       4.51510732      14.99360365
Si       5.32104763       3.42230315      16.72150916
Si       5.73597743       6.33124104       9.12081944
Si       5.45661034       1.84391546       2.73932584
Si       5.54214794       4.46057615      11.15382172
Si       4.11320541       2.04794319       1.14370439
Si       5.74427392       5.37441973      16.83340807
Si       5.13460097       2.51804578      11.46524394
Si       4.50526949       4.38597006      12.87656957
Si       1.94254823       2.50085994       1.34671298
Si       1.52737622       0.66899737       8.24367613
Si       3.83441173       1.90008464      15.59310892
Si       7.11776139       5.26638607      10.13233964
Si       4.03844493       3.93271347       5.89387900
Si       4.36585850       7.32646798       7.87122486
Si       4.82141995       2.80184793       4.43096244
Si       5.62915202       1.54418384       9.74444343
Si       7.21964692       3.21015556      16.08173277
Si       4.18441362       2.00143042       6.44958876
22
Lattice="5.37647382697664 -0.4572154752067543 0.5931650782217989 2.127197692000121 5.460506303642928 1.1082097590492086 2.4569200151233543 2.022877510811956 16.92266173602398" Properties=species:S:1:pos:R:3 unique_starting_index=40 config_type=initial n_minim_iter=15 stress="0.042017627992327354 0.0005854551575027236 -0.011322832792728981 0.0005854551575027236 0.020129574223789887 -0.012691449375872547 -0.011322832792728981 -0.012691449375872547 0.0194977221544128" pbc="T T T"
Si       8.82588515       3.03284951      15.04499014
Si       2.84948400       2.53656235       4.97937299
Si       5.49189055       1.20109248       7.72702908
Si       5.11209473       4.48909281      15.02467854
Si       5.16462074       3.36213867      16.72839121
Si       5.62679504       6.32487715       9.12119158
Si       5.44492593       1.81091857       2.70962082
Si       5.43942027       4.41864894      11.15609927
Si       4.08435269       2.02206450       1.11103978
Si       5.59108838       5.33908633      16.81824643
Si       5.04520710       2.47859235      11.46731194
Si       4.41987559       4.28163603      12.87345417
Si       1.92204170       2.46576962       1.32078599
Si       1.45974400       0.68822678       8.26686845
Si       3.75338975       1.88508079      15.64585008
Si       7.00051943       5.22073637      10.10650436
Si       4.00315609       3.89888165       5.85185134
Si       4.26765519       7.30302557       7.85498846
Si       4.76932669       2.73754775       4.40053615
Si       5.53931371       1.51735325       9.72480168
Si       7.07222616       3.21637868      16.07511725
Si       4.13247452       1.98324790       6.43296636
22
Lattice="5.364537752975983 -0.483979736141247 0.5809876632243925 2.0901775280682635 5.415258209594727 1.0982938046090682 2.392473506674102 1.9735518605843547 16.973592867593187" Properties=species:S:1:pos:R:3 unique_starting_index=40 config_type=initial n_minim_iter=16 stress="0.037766916347004305 0.006438763509499575 -0.023078623885289386 0.006438763509499575 0.01649628761068077 -0.016646134067997795 -0.023078623885289386 -0.016646134067997795 0.0184997709585616" pbc="T T T"
Si       8.72978943       2.93822099      15.09137791
Si       2.81113374       2.49710062       4.97499802
Si       5.44607549       1.16165312       7.73296481
Si       5.02968608       4.41519723      15.08259530
Si       5.06267656       3.27022693      16.76359411
Si       5.55808799       6.27492145       9.14351319
Si       5.42942838       1.77224766       2.70325607
Si       5.38014887       4.34797970      11.17325028
Si       4.05246027       1.99127603       1.08914981
Si       5.49927936       5.24903611      16.84484338
Si       4.99078479       2.40604822      11.49808538
Si       4.37218061       4.13817275      12.91080337
Si       1.90761109       2.42160329       1.30234987
Si       1.42863512       0.68835601       8.30303252
Si       3.72555881       1.84474507      15.72703792
Si       6.90701531       5.14293001      10.10961846
Si       3.98367341       3.84855760       5.82111461
Si       4.19168422       7.23366906       7.85526811
Si       4.73377363       2.65821196       4.38537138
Si       5.47002368       1.48082637       9.73979261
Si       6.97763499       3.19119399      16.10602460
Si       4.09774340       1.94254432       6.43539238
22
Lattice="5.345872025049545 -0.5323158052135784 0.573059898260831 2.0252533747474057 5.33386660397774 1.0982477540165867 2.3116990564290147 1.9066825681920987 17.15834687203277" Properties=species:S:1:pos:R:3 unique_starting_index=40 config_type=initial n_minim_iter=17 stress="0.006233857269766932 0.004811220267559811 -0.033751718425707976 0.004811220267559811 -0.013059832637859167 -0.015783763938893115 -0.033751718425707976 -0.015783763938893115 0.014204334782852808" pbc="T T T"
Si       8.59222393       2.78030152      15.27533520
Si       2.75963073       2.42640942       5.00792091
Si       5.39845512       1.09864222       7.80847934
Si       4.90854955       4.28200653      15.26231005
Si       4.91744687       3.12556696      16.91452846
Si       5.45058068       6.20293363       9.24704348
Si       5.40393295       1.70347250       2.72267034
Si       5.28704649       4.22302335      11.29067229
Si       3.99042738       1.92500963       1.05817065
Si       5.37409550       5.12345485      17.01994186
Si       4.91928026       2.28926602      11.62797537
Si       4.32322702       3.88271533      13.05776551
Si       1.88746441       2.34528067       1.28912119
Si       1.37947484       0.70720279       8.41270490
Si       3.72209101       1.79935680      15.97459387
Si       6.76870174       5.01405149      10.18357944
Si       3.96578709       3.76613108       5.79641248
Si       4.06687818       7.11955025       7.91391329
Si       4.68258659       2.51543632       4.39386457
Si       5.35911983       1.43449052       9.82309194
Si       6.82848619       3.18213736      16.26351632
Si       4.03414795       1.87879563       6.47191517
22
Lattice="5.343597460530333 -0.5357222392283202 0.5851510656776949 2.0195548661077556 5.322420024877195 1.122042423807899 2.3385244840930985 1.9431704713192341 17.247257701423646" Properties=species:S:1:pos:R:3 unique_starting_index=40 config_type=initial n_minim_iter=18 stress="-0.02136398673500519 0.0019059463173373256 -0.02139605805755394 0.0019059463173373256 -0.02115321984048708 -0.00522625410728251 -0.02139605805755394 -0.00522625410728251 0.016643562595385585" pbc="T T T"
Si       8.60094398       2.78746543      15.37993539
Si       2.76865781       2.42583198       5.04271521
Si       5.39997401       1.12226716       7.85281314
Si       4.93020967       4.29096679      15.35399088
Si       4.93821815       3.16030953      17.00653782
Si       5.46145683       6.22314744       9.31840983
Si       5.41064386       1.69805033       2.74607847
Si       5.29866426       4.23331770      11.36817429
Si       3.97782119       1.90243082       1.06577708
Si       5.39226681       5.16252950      17.13224509
Si       4.93503960       2.29443146      11.70498115
Si       4.34983577       3.86528849      13.14686332
Si       1.88922227       2.33724260       1.30716058
Si       1.39470941       0.73492346       8.46481713
Si       3.76624759       1.83973379      16.07461963
Si       6.77046076       5.02692246      10.24726715
Si       3.98350181       3.76310699       5.81869803
Si       4.06646719       7.12389349       7.97621153
Si       4.68114292       2.50393956       4.43502375
Si       5.35572678       1.46431613       9.87823239
Si       6.83586185       3.24450957      16.35989467
Si       4.03770674       1.88689883       6.51534625
22
Lattice="5.340440305372245 -0.5191884516681121 0.599031268510383 2.0375938699204643 5.3380045910496365 1.1355330182553873 2.3883241575401186 1.9771944399539785 17.25460463486007" Properties=species:S:1:pos:R:3 unique_starting_index=40 config_type=initial n_minim_iter=19 stress="-0.023965834346421144 0.013736096870848024 -0.004968223346859146 0.013736096870848024 -0.00634754410008837 0.009579714681082274 -0.004968223346859146 0.009579714681082274 0.017255353255074258" pbc="T T T"
Si       8.64792720       2.83512873      15.40426566
Si       2.78860753       2.44269569       5.05749635
Si       5.42280829       1.15519346       7.86698376
Si       4.98241557       4.32599428      15.36405481
Si       4.99557057       3.21740811      17.02772786
Si       5.49979197       6.25949514       9.33631062
Si       5.41782337       1.71860573       2.76180767
Si       5.33775628       4.26945467      11.38731324
Si       3.98449861       1.90836933       1.08044474
Si       5.44855995       5.21699206      17.15778674
Si       4.96927096       2.32776800      11.72181743
Si       4.38919338       3.91313981      13.16725657
Si       1.89786024       2.35391972       1.32335764
Si       1.41877178       0.74842603       8.46693408
Si       3.80498021       1.87138392      16.07283559
Si       6.81458551       5.07222305      10.27021198
Si       4.00358614       3.78684381       5.84031086
Si       4.10528016       7.15802626       7.99806214
Si       4.69972149       2.53030293       4.45351297
Si       5.38155168       1.49742460       9.89150746
Si       6.88938758       3.29214923      16.37932908
Si       4.05759636       1.91119314       6.53338785
22
Lattice="5.336961260962795 -0.5220276526981735 0.5963432285801752 2.031432670450797 5.321812013798287 1.136673611497042 2.3773399793057046 1.9767559596460125 17.251355037831573" Properties=species:S:1:pos:R:3 unique_starting_index=40 config_type=initial n_minim_iter=20 stress="-0.011085249178341191 0.0072021772342052365 -0.011780861473168263 0.0072021772342052365 0.0016347191527675898 -0.0006655523900800094 -0.011780861473168263 -0.0006655523900800094 0.01773019016876728" pbc="T T T"
Si       8.62267754       2.81679376      15.40942422
Si       2.77637884       2.42397821       5.05585745
Si       5.41873197       1.16964184       7.85762308
Si       4.96854274       4.31016751      15.35306092
Si       4.97470868       3.21356158      17.03188778
Si       5.47289599       6.25875794       9.33952446
Si       5.41610991       1.70295066       2.75026547
Si       5.32109556       4.25371798      11.39626662
Si       3.98071532       1.88863092       1.07870703
Si       5.43116613       5.20949308      17.14665108
Si       4.95770032       2.30420873      11.72676849
Si       4.38443524       3.86958485      13.17966380
Si       1.90182896       2.34016979       1.32482800
Si       1.40422826       0.76655732       8.46775344
Si       3.81182778       1.86952499      16.07447078
Si       6.80754928       5.05788144      10.25532946
Si       4.00741782       3.78140638       5.83467441
Si       4.09573680       7.13935699       7.99562461
Si       4.69632649       2.50397567       4.45182237
Si       5.36158858       1.50519838       9.87576160
Si       6.87139094       3.32157639      16.36560114
Si       4.05068911       1.90910406       6.53640474
22
Lattice="5.347416194387618 -0.542671141978989 0.6079445050123373 2.0163361247681815 5.318810039270939 1.1391866171961111 2.411430862762098 1.9633103342971614 17.244698426489354" Properties=species:S:1:pos:R:3 unique_starting_index=40 config_type=initial n_minim_iter=21 stress="0.004090797302572779 0.004274238462326783 -0.008117385830823592 0.004274238462326783 0.022188325557087392 -0.0019694149079492957 -0.008117385830823592 -0.0019694149079492957 0.026050980268304946" pbc="T T T"
Si       8.64896728       2.78026553      15.42188011
Si       2.78668242       2.39968725       5.06130493
Si       5.43609753       1.16813945       7.86179369
Si       4.99073841       4.28319756      15.34208175
Si       5.00718489       3.19577832      17.03324581
Si       5.47173316       6.24578263       9.35704360
Si       5.41760260       1.67364903       2.75301264
Si       5.33302902       4.22249303      11.41917401
Si       3.98494687       1.87373001       1.08641775
Si       5.46146202       5.17344277      17.13742721
Si       4.97895360       2.27079095      11.73742109
Si       4.41382068       3.82655446      13.18907523
Si       1.91057113       2.33413743       1.33629904
Si       1.41234275       0.77855877       8.46338511
Si       3.86191471       1.84207423      16.07071314
Si       6.81488730       5.03780830      10.24980635
Si       4.01937286       3.77642892       5.83759320
Si       4.09680303       7.12695594       7.99860924
Si       4.70230462       2.47170019       4.46278100
Si       5.37438099       1.49757739       9.86874085
Si       6.89925615       3.33045885      16.35917413
Si       4.06283111       1.90149561       6.53490808
