22
Lattice="6.1219764242825585 -1.440341595039512e-45 -7.91739035248618e-31 1.0026571918300433e-45 6.421999399401961 -3.930119685559559e-15 1.9727955948395725e-30 9.33527681526128e-15 15.254278978102754" Properties=species:S:1:pos:R:3 unique_starting_index=32 config_type=initial n_minim_iter=1 energy=-3596.496311276281 free_energy=-3596.496311276281 pbc="T T T"
Si       1.96033125      -0.02381402       8.47892038
Si       4.16164517       6.44581342       8.47892038
Si       1.96033125       3.23481372       0.85178089
Si       4.16164517       3.18718568       0.85178089
Si       5.62016237       2.34473120      14.99007107
Si       0.50181405       4.07726820      14.99007107
Si       5.62016237       0.86626850       7.36293158
Si       0.50181405       5.55573090       7.36293158
Si       3.05244575       1.89615472      11.00260599
Si       3.06953067       4.52584468      11.00260599
Si       3.05244575       1.31484498       3.37546650
Si       3.06953067       5.10715442       3.37546650
Si       3.07815588       4.79290229       9.00830989
Si       3.04382054       1.62909711       9.00830989
Si       3.07815588       4.84009681       1.38117040
Si       3.04382054       1.58190259       1.38117040
Si       2.06110427      -0.00567918       2.20471851
Si       4.06087215       6.42767858       2.20471851
Si       2.06110427       3.21667888       9.83185800
Si       4.06087215       3.20532052       9.83185800
Si       3.06098821       3.21099970       2.61068005
Si       3.06098821      -0.00000000      10.23781954
22
Lattice="6.1219504058792324 -1.440581768257656e-45 -7.917611196406583e-31 1.0026703820947022e-45 6.422135520886107 -3.928380110617088e-15 1.972771962290429e-30 9.339796611204434e-15 15.254589595151835" Properties=species:S:1:pos:R:3 unique_starting_index=32 config_type=initial n_minim_iter=2 stress="0.00012405153076289625 -2.4979176541900495e-15 5.341298005456701e-16 -2.4979176541900495e-15 0.00010175737338819151 4.087392960691299e-16 5.341298005456701e-16 4.087392960691299e-16 1.89999346711766e-05" pbc="T T T"
Si       1.96031987      -0.02381370       8.47909409
Si       4.16163053       6.44594922       8.47909409
Si       1.96031987       3.23488146       0.85179929
Si       4.16163053       3.18725406       0.85179929
Si       5.62014012       2.34477690      14.99037256
Si       0.50181029       4.07735862      14.99037256
Si       5.62014012       0.86629086       7.36307776
Si       0.50181029       5.55584466       7.36307776
Si       3.05243387       1.89619515      11.00283161
Si       3.06951653       4.52594037      11.00283161
Si       3.05243387       1.31487261       3.37553681
Si       3.06951653       5.10726291       3.37553681
Si       3.07813886       4.79300571       9.00848983
Si       3.04381155       1.62912981       9.00848983
Si       3.07813886       4.84019757       1.38119503
Si       3.04381155       1.58193795       1.38119503
Si       2.06109462      -0.00567934       2.20476654
Si       4.06085579       6.42781486       2.20476654
Si       2.06109462       3.21674710       9.83206134
Si       4.06085579       3.20538842       9.83206134
Si       3.06097520       3.21106776       2.61073616
Si       3.06097520      -0.00000000      10.23803096
22
Lattice="6.121653686823927 -1.440476369862999e-45 -7.916663674861991e-31 1.0026742301222379e-45 6.422122360690942 -3.928335411089633e-15 1.972960952295061e-30 9.340113948011302e-15 15.254966091364125" Properties=species:S:1:pos:R:3 unique_starting_index=32 config_type=initial n_minim_iter=3 stress="-9.621839666994118e-05 -2.7032158415956784e-15 9.885282724096096e-16 -2.7032158415956784e-15 1.4763574894533524e-05 2.196851945566877e-16 9.885282724096096e-16 2.196851945566877e-16 6.557268542315964e-05" pbc="T T T"
Si       1.96021415      -0.02381114       8.47930816
Si       4.16143953       6.44593350       8.47930816
Si       1.96021415       3.23487232       0.85182511
Si       4.16143953       3.18725004       0.85182511
Si       5.61987635       2.34476310      14.99072868
Si       0.50177733       4.07735926      14.99072868
Si       5.61987635       0.86629808       7.36324563
Si       0.50177733       5.55582428       7.36324563
Si       3.05229004       1.89619191      11.00310498
Si       3.06936365       4.52593045      11.00310498
Si       3.05229004       1.31486927       3.37562193
Si       3.06936365       5.10725309       3.37562193
Si       3.07797437       4.79300418       9.00870228
Si       3.04367932       1.62911818       9.00870228
Si       3.07797437       4.84017936       1.38121924
Si       3.04367932       1.58194300       1.38121924
Si       2.06099335      -0.00567925       2.20483372
Si       4.06066034       6.42780161       2.20483372
Si       2.06099335       3.21674043       9.83231676
Si       4.06066034       3.20538193       9.83231676
Si       3.06082684       3.21106118       2.61080935
Si       3.06082684      -0.00000000      10.23829240
22
Lattice="6.121440988200528 -1.4404773427581218e-45 -7.917093855686224e-31 1.0026268906710288e-45 6.421865490200852 -3.928170264615862e-15 1.972751579304405e-30 9.339973498319447e-15 15.25470590754329" Properties=species:S:1:pos:R:3 unique_starting_index=32 config_type=initial n_minim_iter=4 stress="6.350352215722136e-05 -5.028046633587861e-15 7.945737899709986e-16 -5.028046633587861e-15 -7.75853874085019e-05 8.159245740739696e-16 7.945737899709986e-16 8.159245740739696e-16 8.578126542942303e-05" pbc="T T T"
Si       1.95999064      -0.02376401       8.47923367
Si       4.16145035       6.44562950       8.47923367
Si       1.95999064       3.23469675       0.85188072
Si       4.16145035       3.18716874       0.85188072
Si       5.61980483       2.34452200      14.99026641
Si       0.50163616       4.07734349      14.99026641
Si       5.61980483       0.86641075       7.36291345
Si       0.50163616       5.55545474       7.36291345
Si       3.05224148       1.89611021      11.00290851
Si       3.06919951       4.52575528      11.00290851
Si       3.05224148       1.31482254       3.37555556
Si       3.06919951       5.10704295       3.37555556
Si       3.07765309       4.79291442       9.00845849
Si       3.04378790       1.62895107       9.00845849
Si       3.07765309       4.83988381       1.38110554
Si       3.04378790       1.58198168       1.38110554
Si       2.06082288      -0.00567310       2.20497694
Si       4.06061811       6.42753859       2.20497694
Si       2.06082288       3.21660585       9.83232989
Si       4.06061811       3.20525964       9.83232989
Si       3.06072049       3.21093275       2.61087398
Si       3.06072049      -0.00000000      10.23822693
22
Lattice="6.121141042169084 -1.44221824869216e-45 -7.919959360356726e-31 1.0006912278226776e-45 6.4221748286817935 -3.930600609984357e-15 1.9718016106758887e-30 9.333997304943392e-15 15.253628657590243" Properties=species:S:1:pos:R:3 unique_starting_index=32 config_type=initial n_minim_iter=5 stress="-6.391329413004828e-05 -5.585960494340825e-15 1.3887087817930424e-15 -5.585960494340825e-15 0.00010673497121910344 8.511995283781725e-16 1.3887087817930424e-15 8.511995283781725e-16 -0.00013448056852151272" pbc="T T T"
Si       1.95980914      -0.02374288       8.47864388
Si       4.16133190       6.44591771       8.47864388
Si       1.95980914       3.23483030       0.85182955
Si       4.16133190       3.18734453       0.85182955
Si       5.61957266       2.34460368      14.98914092
Si       0.50156839       4.07757115      14.98914092
Si       5.61957266       0.86648373       7.36232659
Si       0.50156839       5.55569109       7.36232659
Si       3.05211068       1.89619482      11.00213379
Si       3.06903036       4.52598001      11.00213379
Si       3.05211068       1.31489260       3.37531946
Si       3.06903036       5.10728223       3.37531946
Si       3.07743729       4.79314461       9.00781372
Si       3.04370375       1.62903022       9.00781372
Si       3.07743729       4.84011764       1.38099939
Si       3.04370375       1.58205719       1.38099939
Si       2.06070480      -0.00565636       2.20486774
Si       4.06043624       6.42783119       2.20486774
Si       2.06070480       3.21674378       9.83168207
Si       4.06043624       3.20543105       9.83168207
Si       3.06057052       3.21108741       2.61072510
Si       3.06057052      -0.00000000      10.23753942
22
Lattice="6.120913843809029 -1.4422389948276488e-45 -7.920073386336712e-31 1.0006064282450517e-45 6.422075734105731 -3.9306769443627155e-15 1.9716805025305353e-30 9.33357969421222e-15 15.253477919089994" Properties=species:S:1:pos:R:3 unique_starting_index=32 config_type=initial n_minim_iter=6 stress="-1.6635232709470993e-06 -3.910294953994567e-15 1.2860108403307445e-15 -3.910294953994567e-15 1.3684644606866011e-05 3.4508863850471273e-16 1.2860108403307445e-15 3.4508863850471273e-16 3.7300482920852163e-07" pbc="T T T"
Si       1.95941716      -0.02365295       8.47857552
Si       4.16149669       6.44572868       8.47857552
Si       1.95941716       3.23469082       0.85183656
Si       4.16149669       3.18738492       0.85183656
Si       5.61954624       2.34453861      14.98877333
Si       0.50136761       4.07753713      14.98877333
Si       5.61954624       0.86649926       7.36203437
Si       0.50136761       5.55557647       7.36203437
Si       3.05205918       1.89611790      11.00207054
Si       3.06885466       4.52595783      11.00207054
Si       3.05205918       1.31491996       3.37533158
Si       3.06885466       5.10715577       3.37533158
Si       3.07712476       4.79302159       9.00771316
Si       3.04378908       1.62905414       9.00771316
Si       3.07712476       4.84009201       1.38097420
Si       3.04378908       1.58198372       1.38097420
Si       2.06057621      -0.00556912       2.20495757
Si       4.06033764       6.42764485       2.20495757
Si       2.06057621       3.21660699       9.83169653
Si       4.06033764       3.20546875       9.83169653
Si       3.06045692       3.21103787       2.61081627
Si       3.06045692      -0.00000000      10.23755523
22
Lattice="6.120679823783593 -1.4422542811402536e-45 -7.920179777121902e-31 1.0005119835654856e-45 6.421530413528141 -3.9300470235235164e-15 1.9715590419751503e-30 9.334190859468154e-15 15.253326738760098" Properties=species:S:1:pos:R:3 unique_starting_index=32 config_type=initial n_minim_iter=7 stress="-1.1328381444177402e-05 -2.067112243721771e-15 1.789404583015438e-15 -2.067112243721771e-15 -1.9480127710813045e-05 -6.369395363231017e-18 1.789404583015438e-15 -6.369395363231017e-18 1.5150355250117259e-05" pbc="T T T"
Si       1.95899357      -0.02352076       8.47854005
Si       4.16168626       6.44505117       8.47854005
Si       1.95899357       3.23428597       0.85187668
Si       4.16168626       3.18724445       0.85187668
Si       5.61941461       2.34413702      14.98839522
Si       0.50126522       4.07739339      14.98839522
Si       5.61941461       0.86662819       7.36173185
Si       0.50126522       5.55490223       7.36173185
Si       3.05202736       1.89584372      11.00213737
Si       3.06865247       4.52568669      11.00213737
Si       3.05202736       1.31492148       3.37547400
Si       3.06865247       5.10660893       3.37547400
Si       3.07681705       4.79262635       9.00764964
Si       3.04386277       1.62890407       9.00764964
Si       3.07681705       4.83966927       1.38098627
Si       3.04386277       1.58186114       1.38098627
Si       2.06048492      -0.00538923       2.20493952
Si       4.06019490       6.42691964       2.20493952
Si       2.06048492       3.21615444       9.83160288
Si       4.06019490       3.20537598       9.83160288
Si       3.06033991       3.21076521       2.61074150
Si       3.06033991      -0.00000000      10.23740487
22
Lattice="6.120613964408197 -1.4423580318964645e-45 -7.922095948935905e-31 1.0005257864204759e-45 6.42168636957326 -3.93025083637257e-15 1.9709654365383006e-30 9.333484279487378e-15 15.252592882298188" Properties=species:S:1:pos:R:3 unique_starting_index=32 config_type=initial n_minim_iter=8 stress="-1.9476796666149304e-05 -2.967043758724887e-15 1.7095871858183654e-15 -2.967043758724887e-15 4.71742443929526e-06 -9.585466659002297e-17 1.7095871858183654e-15 -9.585466659002297e-17 -1.2236803163432997e-06" pbc="T T T"
Si       1.95884197      -0.02346219       8.47816689
Si       4.16177199       6.44514856       8.47816689
Si       1.95884197       3.23430538       0.85187045
Si       4.16177199       3.18738099       0.85187045
Si       5.61942763       2.34420332      14.98759017
Si       0.50118633       4.07748305      14.98759017
Si       5.61942763       0.86663987       7.36129373
Si       0.50118633       5.55504650       7.36129373
Si       3.05207460       1.89590421      11.00172790
Si       3.06853937       4.52578216      11.00172790
Si       3.05207460       1.31493898       3.37543146
Si       3.06853937       5.10674739       3.37543146
Si       3.07669588       4.79282929       9.00722346
Si       3.04391808       1.62885708       9.00722346
Si       3.07669588       4.83970027       1.38092702
Si       3.04391808       1.58198610       1.38092702
Si       2.06044980      -0.00532840       2.20481823
Si       4.06016416       6.42701477       2.20481823
Si       2.06044980       3.21617159       9.83111467
Si       4.06016416       3.20551478       9.83111467
Si       3.06030698       3.21084318       2.61049059
Si       3.06030698      -0.00000000      10.23678703
22
Lattice="6.120897828574414 -1.4424809730574948e-45 -7.922624254754237e-31 1.0004979628015385e-45 6.421542049878492 -3.929826975312317e-15 1.970918181688226e-30 9.33424787343436e-15 15.252538241679597" Properties=species:S:1:pos:R:3 unique_starting_index=32 config_type=initial n_minim_iter=9 stress="1.3143121750858219e-06 -2.569580856189753e-15 1.5709679066691135e-15 -2.569580856189753e-15 -9.678178090896563e-07 3.3279142378926794e-16 1.5709679066691135e-15 3.3279142378926794e-16 1.741897639538008e-06" pbc="T T T"
Si       1.95884485      -0.02342857       8.47814210
Si       4.16205298       6.44497062       8.47814210
Si       1.95884485       3.23419960       0.85187298
Si       4.16205298       3.18734245       0.85187298
Si       5.61969893       2.34413305      14.98750546
Si       0.50119890       4.07740900      14.98750546
Si       5.61969893       0.86663798       7.36123634
Si       0.50119890       5.55490407       7.36123634
Si       3.05232156       1.89595022      11.00172665
Si       3.06857627       4.52559183      11.00172665
Si       3.05232156       1.31482081       3.37545753
Si       3.06857627       5.10672124       3.37545753
Si       3.07677420       4.79276082       9.00720386
Si       3.04412363       1.62878123       9.00720386
Si       3.07677420       4.83955226       1.38093474
Si       3.04412363       1.58198979       1.38093474
Si       2.06061894      -0.00530828       2.20479604
Si       4.06027889       6.42685033       2.20479604
Si       2.06061894       3.21607931       9.83106516
Si       4.06027889       3.20546274       9.83106516
Si       3.06044891       3.21077102       2.61045903
Si       3.06044891      -0.00000000      10.23672815
22
Lattice="6.120939699576368 -1.4424952488153758e-45 -7.923136116807431e-31 1.0004670290248004e-45 6.421379766942675 -3.929961692546297e-15 1.9707826766961838e-30 9.333590489529776e-15 15.252372403499843" Properties=species:S:1:pos:R:3 unique_starting_index=32 config_type=initial n_minim_iter=10 stress="7.709251405828019e-06 -5.5657499058055644e-15 1.1206277583588658e-15 -5.5657499058055644e-15 -4.788773368084363e-06 6.255892542266336e-16 1.1206277583588658e-15 6.255892542266336e-16 1.0363112196948161e-06" pbc="T T T"
Si       1.95874105      -0.02339710       8.47802808
Si       4.16219865       6.44477687       8.47802808
Si       1.95874105       3.23408698       0.85184188
Si       4.16219865       3.18729278       0.85184188
Si       5.61969685       2.34407006      14.98735392
Si       0.50124285       4.07730971      14.98735392
Si       5.61969685       0.86661982       7.36116772
Si       0.50124285       5.55475994       7.36116772
Si       3.05251997       1.89600883      11.00164348
Si       3.06841973       4.52537093      11.00164348
Si       3.05251997       1.31468105       3.37545727
Si       3.06841973       5.10669872       3.37545727
Si       3.07671885       4.79272017       9.00711138
Si       3.04422085       1.62865960       9.00711138
Si       3.07671885       4.83934948       1.38092518
Si       3.04422085       1.58203028       1.38092518
Si       2.06059534      -0.00523869       2.20468553
Si       4.06034436       6.42661846       2.20468553
Si       2.06059534       3.21592858       9.83087173
Si       4.06034436       3.20545119       9.83087173
Si       3.06046985       3.21068988       2.61054077
Si       3.06046985      -0.00000000      10.23672697
22
Lattice="6.120877576851989 -1.4431174913150902e-45 -7.924498926201966e-31 9.99766793500529e-46 6.421490583147407 -3.931128576795744e-15 1.970354770689142e-30 9.330656632256884e-15 15.251844280870824" Properties=species:S:1:pos:R:3 unique_starting_index=32 config_type=initial n_minim_iter=11 stress="1.1611491034271073e-05 -4.00423677679635e-15 1.5675572062432725e-15 -4.00423677679635e-15 3.5838467445968415e-06 6.643855953977594e-16 1.5675572062432725e-15 6.643855953977594e-16 -1.6679318105991235e-06" pbc="T T T"
Si       1.95871155      -0.02328592       8.47778625
Si       4.16216603       6.44477650       8.47778625
Si       1.95871155       3.23403121       0.85186411
Si       4.16216603       3.18745937       0.85186411
Si       5.61969105       2.34409811      14.98680458
Si       0.50118653       4.07739247      14.98680458
Si       5.61969105       0.86664718       7.36088244
Si       0.50118653       5.55484341       7.36088244
Si       3.05268607       1.89614244      11.00126207
Si       3.06819150       4.52534814      11.00126207
Si       3.05268607       1.31460285       3.37533993
Si       3.06819150       5.10688773       3.37533993
Si       3.07662052       4.79288762       9.00683133
Si       3.04425706       1.62860296       9.00683133
Si       3.07662052       4.83934825       1.38090919
Si       3.04425706       1.58214233       1.38090919
Si       2.06057622      -0.00509465       2.20445403
Si       4.06030135       6.42658524       2.20445403
Si       2.06057622       3.21583994       9.83037617
Si       4.06030135       3.20565064       9.83037617
Si       3.06043879       3.21074529       2.61065531
Si       3.06043879      -0.00000000      10.23657745
