22
Lattice="5.471317572374427 -0.49139945718326505 -2.3166974503366946 -2.096958452265193 10.576841290078164 -1.9310441763099846 -6.340332137458284 -5.037798081822806 12.658736498346535" Properties=species:S:1:pos:R:3 unique_starting_index=18 config_type=initial n_minim_iter=3 energy=-3603.4724403275172 free_energy=-3603.4724403275172 pbc="T T T"
Si       1.05118243       7.67790989      -0.21893731
Si      -2.73538085      -2.45020598       5.99642458
Si      -5.08867473      -2.38671078      10.95982252
Si      -1.35759155      -2.46538265       9.57511665
Si      -6.34157157      -0.14421260      11.20897738
Si       4.67704918       2.01569054      -1.11725066
Si       2.76472889       1.95869772      -0.44339944
Si      -3.02558865       2.35039565       8.61559954
Si      -3.24293800      -2.83942603      10.23897910
Si      -5.23411148       1.48326282       6.49881423
Si      -1.26774919       1.48760243       2.92244530
Si      -3.87612589       2.92726344       6.84067054
Si      -4.47015873      -2.50504104       7.00357865
Si      -0.45458594       6.84356826      -1.26955540
Si      -0.46263673       2.82701179       4.58475525
Si       1.26187220       7.07058183      -2.28599618
Si      -0.90297656      -3.06115189       5.32808136
Si       0.68205238      -3.41855487       6.62778686
Si       0.47076195       2.48561190       2.82878805
Si      -5.02077291       2.30778377       8.37947187
Si      -1.29071480       3.49415990       2.88411571
Si      -2.91207831      -2.41926193       8.27376636
