16
Lattice="6.920286364897189 -0.053923917292641524 -0.04663975220748106 1.1120513701047023 6.830564611456829 -0.046639752207878075 1.1120513701043702 0.9382041464484923 6.765985601326682" Properties=species:S:1:pos:R:3 unique_starting_index=52 config_type=initial n_minim_iter=1 energy=-2603.6604715719454 free_energy=-2603.6604715719454 pbc="T T T"
Si       4.13013814       1.83958065       2.98622734
Si       3.86959798       3.52897670       1.39003119
Si       2.50873020       3.49711824       3.29182147
Si       0.88126234       2.01322430       2.34357757
Si       2.72037196       0.42934869       1.65447495
Si       2.13286424       2.39545021       0.18643951
Si       6.72254609       5.64689279       7.25655549
Si       9.01235768       5.28047709       4.54220128
Si       6.69818270       7.99874749       4.57077771
Si       7.30159657       6.17167380       3.29469943
Si       5.31987489       6.49864233       5.63245003
Si       7.31296920       4.14776925       5.61911078
Si       7.29044364       1.87888145       6.01531307
Si       7.36197013       6.13850934       0.99239826
Si       3.07958735       6.94256289       5.93141784
Si       5.62057489       4.74190924       4.10136138
16
Lattice="6.9212278123159745 -0.05426491870543207 -0.04693469037580445 1.1118737536909489 6.831550034013619 -0.046934690376200454 1.1118737536906178 0.9380542968459108 6.767003241358897" Properties=species:S:1:pos:R:3 unique_starting_index=52 config_type=initial n_minim_iter=2 stress="0.0004469813496028298 3.7239861868990246e-05 3.220941684200755e-05 3.7239861868990246e-05 0.00043425916736221614 2.7174111959627094e-05 3.220941684200755e-05 2.7174111959627094e-05 0.0004263443921664072" pbc="T T T"
Si       4.13047114       1.83945415       2.98654608
Si       3.86994699       3.52925491       1.38986007
Si       2.50866158       3.49748403       3.29212143
Si       0.88117360       2.01351183       2.34373206
Si       2.72054856       0.42922849       1.65473720
Si       2.13313272       2.39558351       0.18628278
Si       6.72299994       5.64723389       7.25707964
Si       9.01299383       5.28082885       4.54246328
Si       6.69859534       7.99932237       4.57108804
Si       7.30225722       6.17212552       3.29467925
Si       5.32003061       6.49928596       5.63289993
Si       7.31352570       4.14783218       5.61968285
Si       7.29110958       1.87858711       6.01595855
Si       7.36267007       6.13906536       0.99201397
Si       3.07940933       6.94330338       5.93202345
Si       5.62079614       4.74209590       4.10152282
16
Lattice="6.919698109647565 -0.05720145789150621 -0.04947455518651736 1.108721575421989 6.830536611690098 -0.049474555186906494 1.1087215754216644 0.935394899266099 6.766366419111326" Properties=species:S:1:pos:R:3 unique_starting_index=52 config_type=initial n_minim_iter=3 stress="-3.4076245774697563e-06 -0.00033938257133883025 -0.0002935380036465112 -0.00033938257133883025 0.00011253498920232059 -0.0002476491460417239 -0.0002935380036465112 -0.0002476491460417239 0.0001846656745103981" pbc="T T T"
Si       4.12751364       1.83580557       2.98506821
Si       3.86748916       3.52667441       1.38646256
Si       2.50456711       3.49568999       3.29005748
Si       0.87916655       2.01311927       2.34181746
Si       2.71828729       0.42757862       1.65462466
Si       2.13240783       2.39341331       0.18466635
Si       6.71733337       5.64215083       7.25148021
Si       9.00585577       5.27629950       4.53824021
Si       6.69263074       7.99309976       4.56721455
Si       7.29764485       6.16734657       3.28983192
Si       5.31384689       6.49566305       5.62886942
Si       7.30803837       4.14249620       5.61667860
Si       7.28661779       1.87332627       6.01308376
Si       7.35836228       6.13524434       0.98722233
Si       3.07346729       6.93994818       5.92893284
Si       5.61487509       4.73710049       4.09720220
16
Lattice="6.919705852407783 -0.054636367566079085 -0.04725596308166062 1.1112513475381303 6.830112346008819 -0.04725596308204563 1.111251347537809 0.9375291915773516 6.765626859359735" Properties=species:S:1:pos:R:3 unique_starting_index=52 config_type=initial n_minim_iter=4 stress="3.2770728196827354e-05 2.6579763055669632e-05 2.2989308360995846e-05 2.6579763055669632e-05 2.369033496996174e-05 1.9395384969259195e-05 2.2989308360995846e-05 1.9395384969259195e-05 1.8041204205233983e-05" pbc="T T T"
Si       4.12910520       1.83734433       2.98684822
Si       3.86971200       3.52790932       1.38772874
Si       2.50635189       3.49764017       3.29109703
Si       0.88058698       2.01453533       2.34130003
Si       2.71822289       0.42903063       1.65610051
Si       2.13404284       2.39306869       0.18589051
Si       6.72246126       5.64630538       7.25259706
Si       9.00839877       5.28106727       4.54219045
Si       6.69758940       7.99483258       4.57136329
Si       7.30166435       6.17006026       3.29295031
Si       5.31795095       6.49903973       5.63110539
Si       7.31139011       4.14608718       5.61969781
Si       7.28953029       1.87739411       6.01509282
Si       7.36139023       6.13768181       0.99095818
Si       3.07796745       6.94225129       5.93080649
Si       5.61715860       4.73902703       4.09886850
16
Lattice="6.918528111516922 -0.055041919386020634 -0.04760673204169359 1.1106532833016727 6.829019704689019 -0.04760673204207563 1.110653283301354 0.9370246228482697 6.764596173027872" Properties=species:S:1:pos:R:3 unique_starting_index=52 config_type=initial n_minim_iter=5 stress="-0.00021159006116157464 6.813659668435869e-06 5.89325506243058e-06 6.813659668435869e-06 -0.00021391779858212368 4.971961263650478e-06 5.89325506243058e-06 4.971961263650478e-06 -0.00021536593995125512" pbc="T T T"
Si       4.12817025       1.83620405       2.98825469
Si       3.87076452       3.52678105       1.38639767
Si       2.50507046       3.49892681       3.29017236
Si       0.87918424       2.01625469       2.33858626
Si       2.71558384       0.42805836       1.65819300
Si       2.13550146       2.39014227       0.18462684
Si       6.72106810       5.64577342       7.25012024
Si       9.00567266       5.28011960       4.54202098
Si       6.69683045       7.99219662       4.57044993
Si       7.29883541       6.16742752       3.29070831
Si       5.31491371       6.49668862       5.62882323
Si       7.30831863       4.14353060       5.61770012
Si       7.28856725       1.87671359       6.01497713
Si       7.36101855       6.13676831       0.99030144
Si       3.07713450       6.94201651       5.92999717
Si       5.61561167       4.73772192       4.09773969
16
Lattice="6.918374953895881 -0.0554959916721231 -0.04799946721324166 1.1101799058610184 6.82894518827088 -0.04799946721361921 1.1101799058607031 0.9366252486020817 6.764579031761146" Properties=species:S:1:pos:R:3 unique_starting_index=52 config_type=initial n_minim_iter=6 stress="-0.00014125876838454808 -1.652514573053684e-05 -1.4292891554186949e-05 -1.652514573053684e-05 -0.00013561331469590064 -1.2058480823797914e-05 -1.4292891554186949e-05 -1.2058480823797914e-05 -0.00013210114233664602" pbc="T T T"
Si       4.12741038       1.83573227       2.98945606
Si       3.87174142       3.52584330       1.38575769
Si       2.50447747       3.50001915       3.28933663
Si       0.87802325       2.01795569       2.33661532
Si       2.71370747       0.42720107       1.66016028
Si       2.13698270       2.38798570       0.18349499
Si       6.72053432       5.64582555       7.24878229
Si       9.00428510       5.27981509       4.54226538
Si       6.69679197       7.99079555       4.57011338
Si       7.29740736       6.16605779       3.28944259
Si       5.31324406       6.49552508       5.62765020
Si       7.30672800       4.14210847       5.61671777
Si       7.28841859       1.87609679       6.01549728
Si       7.36141328       6.13655007       0.98961612
Si       3.07650147       6.94252509       5.92987997
Si       5.61472014       4.73696977       4.09708914
16
Lattice="6.9185559801870316 -0.055727409670140934 -0.04819962474307336 1.1099822721864123 6.829162595121181 -0.04819962474344747 1.1099822721861001 0.9364585110412292 6.764823014057853" Properties=species:S:1:pos:R:3 unique_starting_index=52 config_type=initial n_minim_iter=7 stress="3.554065925432144e-05 -8.209806252132578e-06 -7.100806997715145e-06 -8.209806252132578e-06 3.834535954245375e-05 -5.990736352854542e-06 -7.100806997715145e-06 -5.990736352854542e-06 4.0090230968330145e-05" pbc="T T T"
Si       4.12665319       1.83587726       2.99084349
Si       3.87298787       3.52486223       1.38570122
Si       2.50449290       3.50128102       3.28837394
Si       0.87695799       2.01997001       2.33474540
Si       2.71199026       0.42641370       1.66242304
Si       2.13878889       2.38593510       0.18238975
Si       6.72058034       5.64639298       7.24811886
Si       9.00372633       5.27995723       4.54292249
Si       6.69735904       7.99013181       4.57015934
Si       7.29665076       6.16534455       3.28904919
Si       5.31263161       6.49486215       5.62700110
Si       7.30589756       4.14162900       5.61615530
Si       7.28871889       1.87590833       6.01643217
Si       7.36234899       6.13669489       0.98929490
Si       3.07636627       6.94349744       5.93006956
Si       5.61431578       4.73662863       4.09679408
16
Lattice="6.918805570168775 -0.055960638625022464 -0.048401348601611154 1.109794397843211 6.8294478916959065 -0.04840134860197716 1.1097943978429063 0.9363000071334581 6.7651344031422385" Properties=species:S:1:pos:R:3 unique_starting_index=52 config_type=initial n_minim_iter=8 stress="0.00025208858119048363 1.1266298602043642e-05 9.744421427276509e-06 1.1266298602043642e-05 0.00024823969731182984 8.22107398298978e-06 9.744421427276509e-06 8.22107398298978e-06 0.00024584521418934976" pbc="T T T"
Si       4.12469348       1.83674395       2.99330246
Si       3.87517958       3.52249976       1.38620449
Si       2.50501725       3.50341491       3.28596361
Si       0.87513190       2.02384704       2.33138427
Si       2.70895498       0.42507963       1.66674398
Si       2.14230310       2.38225558       0.18044692
Si       6.72056872       5.64723630       7.24744857
Si       9.00319034       5.28003700       4.54385360
Si       6.69818836       7.98944641       4.57010409
Si       7.29572814       6.16448815       3.28950695
Si       5.31280113       6.49389720       5.62608767
Si       7.30489804       4.14197171       5.61533206
Si       7.28891346       1.87593323       6.01795587
Si       7.36387156       6.13663220       0.98909996
Si       3.07642357       6.94503228       5.93003562
Si       5.61347229       4.73591699       4.09617857
16
Lattice="6.918222377524491 -0.05558668178874506 -0.04807790670317114 1.1100648204359076 6.828810060215727 -0.04807790670353835 1.1100648204356025 0.9365281545055864 6.764456618194512" Properties=species:S:1:pos:R:3 unique_starting_index=52 config_type=initial n_minim_iter=9 stress="-0.00015657877260865621 -1.7224345705442319e-06 -1.4897642011861738e-06 -1.7224345705442319e-06 -0.00015599034060538152 -1.2568690526591182e-06 -1.4897642011861738e-06 -1.2568690526591182e-06 -0.0001556242629213491" pbc="T T T"
Si       4.12265380       1.83752506       2.99379734
Si       3.87542984       3.52038780       1.38690614
Si       2.50544378       3.50359593       3.28377257
Si       0.87522736       2.02501136       2.33056328
Si       2.70833563       0.42528227       1.66801446
Si       2.14346687       2.38142847       0.18046435
Si       6.71981093       5.64626033       7.24861594
Si       9.00406280       5.27911920       4.54271959
Si       6.69709873       7.99051762       4.56935929
Si       7.29641465       6.16494047       3.29197430
Si       5.31538771       6.49415183       5.62617970
Si       7.30545949       4.14449985       5.61557078
Si       7.28732666       1.87711873       6.01720833
Si       7.36304361       6.13516384       0.99038081
Si       3.07732496       6.94403836       5.92839801
Si       5.61246949       4.73507096       4.09544683
16
Lattice="6.918381789988847 -0.05558700656442858 -0.04807818760742519 1.110091341421342 6.828967251426048 -0.04807818760778477 1.1100913414210434 0.9365505294598108 6.764612209058422" Properties=species:S:1:pos:R:3 unique_starting_index=52 config_type=initial n_minim_iter=10 stress="-5.043116126103198e-06 -2.6080889400638835e-05 -2.255782369073055e-05 -2.6080889400638835e-05 3.866847855950805e-06 -1.9031354388796596e-05 -2.255782369073055e-05 -1.9031354388796596e-05 9.40995049189381e-06" pbc="T T T"
Si       4.12049188       1.83668341       2.99717979
Si       3.87824562       3.51771358       1.38558583
Si       2.50425013       3.50665639       3.28131654
Si       0.87427686       2.02892884       2.32703024
Si       2.70528583       0.42483895       1.67240020
Si       2.14716838       2.37770223       0.17939362
Si       6.72009112       5.64665407       7.24956222
Si       9.00508895       5.27922817       4.54297285
Si       6.69753403       7.99148428       4.56943063
Si       7.29642165       6.16432435       3.29237289
Si       5.31569017       6.49410727       5.62551257
Si       7.30485334       4.14491022       5.61562281
Si       7.28685361       1.87864458       6.01823298
Si       7.36418019       6.13448980       0.99174307
Si       3.07874938       6.94494810       5.92753468
Si       5.61167946       4.73440444       4.09487034
16
Lattice="6.919063645598439 -0.053981293408537294 -0.046689377827501995 1.1117889373998568 6.8293690096930115 -0.046689377827865475 1.1117889373995558 0.9379827399033689 6.764809631334886" Properties=species:S:1:pos:R:3 unique_starting_index=52 config_type=initial n_minim_iter=11 stress="0.00011591746207231671 8.022125131334579e-05 6.938478268841653e-05 8.022125131334579e-05 8.851163059112284e-05 5.853784507381127e-05 6.938478268841653e-05 5.853784507381127e-05 7.146180445810045e-05" pbc="T T T"
Si       4.12013383       1.83735801       2.99863142
Si       3.87969712       3.51710241       1.38604419
Si       2.50485481       3.50802563       3.28064570
Si       0.87560725       2.02982754       2.32723189
Si       2.70583420       0.42609493       1.67326046
Si       2.14827825       2.37806895       0.18051253
Si       6.72391884       5.64952951       7.25264841
Si       9.00915228       5.28241726       4.54537353
Si       6.70101292       7.99501222       4.57224046
Si       7.29922895       6.16688254       3.29543535
Si       5.31951347       6.49630215       5.62760272
Si       7.30784770       4.14827743       5.61749358
Si       7.28875611       1.88149051       6.01996276
Si       7.36659208       6.13600786       0.99431002
Si       3.08187502       6.94686102       5.92866698
Si       5.61510121       4.73729126       4.09736720
16
Lattice="6.918690424282798 -0.05438559068355572 -0.04703906170938218 1.1113275710359976 6.829069190555305 -0.047039061709747344 1.1113275710356962 0.9375934990398258 6.764563335003753" Properties=species:S:1:pos:R:3 unique_starting_index=52 config_type=initial n_minim_iter=12 stress="-1.3094500826817782e-05 -3.339913232293302e-05 -2.888750175633621e-05 -3.339913232293302e-05 -1.6844196186333678e-06 -2.4371512556279098e-05 -2.888750175633621e-05 -2.4371512556279098e-05 5.414066002713593e-06" pbc="T T T"
Si       4.11771721       1.83606464       2.99963071
Si       3.88008124       3.51458518       1.38462031
Si       2.50317301       3.50870258       3.27835993
Si       0.87487351       2.03081246       2.32599426
Si       2.70464334       0.42555399       1.67441345
Si       2.14912556       2.37671612       0.17981107
Si       6.72335725       5.64895270       7.25199665
Si       9.00834003       5.28198628       4.54489666
Si       6.70034978       7.99430148       4.57188270
Si       7.29826306       6.16612849       3.29511939
Si       5.31893553       6.49542099       5.62690208
Si       7.30694178       4.14784585       5.61672259
Si       7.28783244       1.88080180       6.02011314
Si       7.36648541       6.13508904       0.99360683
Si       3.08104062       6.94689533       5.92785908
Si       5.61462835       4.73689233       4.09702216
16
Lattice="6.918359611343333 -0.054348054128018145 -0.04700659567691914 1.1113088709469159 6.82873678041619 -0.047006595677291714 1.1113088709466081 0.937577722339589 6.764229716000127" Properties=species:S:1:pos:R:3 unique_starting_index=52 config_type=initial n_minim_iter=13 stress="-0.00010168571331365445 -1.243584823687139e-05 -1.0755985644122177e-05 -1.243584823687139e-05 -9.743727844577784e-05 -9.074500156286836e-06 -1.0755985644122177e-05 -9.074500156286836e-06 -9.479422505699938e-05" pbc="T T T"
Si       4.11630288       1.83551721       3.00065902
Si       3.88076838       3.51303299       1.38393040
Si       2.50239525       3.50953253       3.27692337
Si       0.87408633       2.03043929       2.32630117
Si       2.70475716       0.42473596       1.67399995
Si       2.14862518       2.37691705       0.17906117
Si       6.72298127       5.64859352       7.25179788
Si       9.00803182       5.28165750       4.54456988
Si       6.69993242       7.99406009       4.57160445
Si       7.29812910       6.16662714       3.29484805
Si       5.31871913       6.49532206       5.62743463
Si       7.30741076       4.14754621       5.61654794
Si       7.28776012       1.88089167       6.02055841
Si       7.36692034       6.13494138       0.99363159
Si       3.08111703       6.94732350       5.92770940
Si       5.61455058       4.73682671       4.09696541
