16
Lattice="6.869990411102057 -0.1699628910219887 -0.14700391810891908 0.9892004923403295 6.800524834078063 -0.14700391810873745 0.9892004923404991 0.8345585721414369 6.750722936139262" Properties=species:S:1:pos:R:3 unique_starting_index=52 config_type=initial n_minim_iter=1 energy=-2603.395477400079 free_energy=-2603.395477400079 pbc="T T T"
Si       4.35363141       1.83631804       2.55250600
Si       3.48369891       3.82162399       1.44930650
Si       2.54314492       3.09975136       3.57287178
Si       0.79903181       2.15878957       2.13840076
Si       2.52706803       0.37894616       1.82808890
Si       2.26250567       2.17720192       0.11154349
Si       6.29279281       5.58982942       7.06864329
Si       8.74859593       4.88955355       4.51281371
Si       6.56957418       7.75313360       4.18816985
Si       7.13745519       5.81828305       3.08010034
Si       5.03271010       6.38117534       5.31367412
Si       6.93698646       3.92066835       5.54880896
Si       7.44146177       1.62723065       5.61135649
Si       6.95761726       6.36078393       0.80158874
Si       2.85695710       6.57038182       6.17886993
Si       5.36674717       4.52776246       3.91614203
16
Lattice="6.860928252205271 -0.17048645556029055 -0.1474567583615776 0.9871585588733567 6.791680211338072 -0.14745675836139727 0.9871585588735251 0.8328358545611287 6.742035896376161" Properties=species:S:1:pos:R:3 unique_starting_index=52 config_type=initial n_minim_iter=2 stress="-4.9609567874904393e-05 -0.0001778964523443975 -0.00015386579596915275 -0.0001778964523443975 1.116485429243794e-05 -0.00012981192385150313 -0.00015386579596915275 -0.00012981192385150313 4.89740823002888e-05" pbc="T T T"
Si       4.34723164       1.83330170       2.54877946
Si       3.47855788       3.81600968       1.44685868
Si       2.53909408       3.09522780       3.56766883
Si       0.79753628       2.15580171       2.13553838
Si       2.52359971       0.37802141       1.82554473
Si       2.25930866       2.17422947       0.11099503
Si       6.28318811       5.58133686       7.05878845
Si       8.73615960       4.88193404       4.50582998
Si       6.55958567       7.74222332       4.18163630
Si       7.12711023       5.80972615       3.07505824
Si       5.02483450       6.37202581       5.30593317
Si       6.92680990       3.91441698       5.54087049
Si       7.43083084       1.62392119       5.60350918
Si       6.94770262       6.35169259       0.79944470
Si       2.85190489       6.56118656       6.17018246
Si       5.35869356       4.52096788       3.91026527
16
Lattice="6.858596086708798 -0.1541632462298139 -0.133338525179848 1.0028560419739814 6.786632916710736 -0.13333852517966796 1.0028560419741497 0.846079346840108 6.735006699872618" Properties=species:S:1:pos:R:3 unique_starting_index=52 config_type=initial n_minim_iter=3 stress="-0.0002083745943940176 0.0013108410570835162 0.0011337696731938943 0.0013108410570835162 -0.0006561946984368968 0.0009565272226656945 0.0011337696731938943 0.0009565272226656945 -0.0009347943430944609" pbc="T T T"
Si       4.34990924       1.84724004       2.55889842
Si       3.49085908       3.81662485       1.45919327
Si       2.55328427       3.10528329       3.56650003
Si       0.80521825       2.16169599       2.14055031
Si       2.53061928       0.38461560       1.83065521
Si       2.26641224       2.18013731       0.11678391
Si       6.31036496       5.60145149       7.07527114
Si       8.75967063       4.90548850       4.52335931
Si       6.58398904       7.76190645       4.20241873
Si       7.14773310       5.82391741       3.09406679
Si       5.04886437       6.38884273       5.31723696
Si       6.94427093       3.93581230       5.55588287
Si       7.44268402       1.65168905       5.61544182
Si       6.96528242       6.36071457       0.82520309
Si       2.88127210       6.57400465       6.17539821
Si       5.37221019       4.53237145       3.92012843
16
Lattice="6.855831112326025 -0.1604040128833561 -0.13873627491543303 0.9962388215605898 6.784958209046111 -0.13873627491525237 0.9962388215607589 0.8404965978802087 6.734127346689476" Properties=species:S:1:pos:R:3 unique_starting_index=52 config_type=initial n_minim_iter=4 stress="-0.0007033335676076385 -0.00022796270584256594 -0.00019716898635945706 -0.00022796270584256594 -0.0006254551077468398 -0.00016634551741624736 -0.00019716898635945706 -0.00016634551741624736 -0.0005770050470018852" pbc="T T T"
Si       4.33731938       1.84187969       2.55654010
Si       3.48567742       3.80473773       1.45422873
Si       2.54588062       3.10129122       3.55545244
Si       0.79918720       2.16229156       2.14213625
Si       2.53123539       0.37839196       1.83101601
Si       2.26598383       2.18083552       0.11057325
Si       6.29758947       5.58901129       7.07239804
Si       8.75294987       4.89367598       4.51146301
Si       6.56957537       7.75755040       4.19244389
Si       7.13888803       5.81219864       3.08391437
Si       5.03580738       6.38209987       5.30710359
Si       6.93123018       3.92479374       5.55067072
Si       7.43104070       1.64277665       5.61138067
Si       6.95809455       6.35013039       0.81696897
Si       2.87052649       6.56854817       6.16611114
Si       5.35825216       4.52059548       3.90994318
16
Lattice="6.866088085085728 -0.15005813019257916 -0.12978793753018103 1.0081640167073895 6.79332675130599 -0.12978793752999987 1.0081640167075594 0.8505575247714557 6.741118983951568" Properties=species:S:1:pos:R:3 unique_starting_index=52 config_type=initial n_minim_iter=5 stress="0.0024716503983959067 0.000728043384191705 0.0006296976321465957 0.000728043384191705 0.00222293034015912 0.0005312568693951502 0.0006296976321465957 0.0005312568693951502 0.0020681956169562137" pbc="T T T"
Si       4.33999171       1.85013064       2.57176396
Si       3.50214931       3.80463515       1.46019963
Si       2.55446373       3.11653558       3.55449046
Si       0.80647413       2.17000810       2.14968765
Si       2.54092437       0.38412942       1.83756377
Si       2.27481714       2.18915598       0.11530721
Si       6.32340559       5.61406178       7.09798472
Si       8.78581327       4.91425248       4.53256471
Si       6.59861501       7.78592941       4.20976463
Si       7.16401221       5.83197006       3.10897522
Si       5.06729146       6.40221002       5.32305709
Si       6.95494961       3.95268222       5.56827188
Si       7.44719353       1.66277007       5.63219834
Si       6.98396067       6.36209888       0.83375365
Si       2.89295421       6.59095797       6.17553584
Si       5.37793348       4.53720002       3.92430474
16
Lattice="6.865513190172942 -0.14640471469341634 -0.12662803368512845 1.011668474131323 6.792144919196887 -0.12662803368495051 1.0116684741314905 0.853514129632145 6.739494112528394" Properties=species:S:1:pos:R:3 unique_starting_index=52 config_type=initial n_minim_iter=6 stress="-1.3396647119192504e-06 -0.00029539196304920445 -0.00025548974652605134 -0.00029539196304920445 9.957452233791846e-05 -0.00021554898092821165 -0.00025548974652605134 -0.00021554898092821165 0.00016235566235045564" pbc="T T T"
Si       4.32568924       1.84323115       2.58434290
Si       3.51103095       3.78860841       1.45155941
Si       2.54525456       3.12711892       3.53987616
Si       0.80998531       2.17030831       2.15129692
Si       2.54312795       0.38731505       1.83762893
Si       2.27570426       2.19123995       0.11845020
Si       6.32394435       5.62493384       7.10732954
Si       8.79656364       4.91296273       4.54197659
Si       6.60942256       7.79498941       4.20713199
Si       7.16787133       5.83717009       3.12868601
Si       5.08790649       6.40260370       5.32536231
Si       6.96072519       3.97260928       5.56832925
Si       7.43869634       1.66910912       5.64218391
Si       6.99317070       6.35190542       0.83858751
Si       2.89777204       6.59947844       6.16475217
Si       5.38575400       4.54379795       3.93001141
16
Lattice="6.861806305120141 -0.12731148546528495 -0.11011396117784676 1.0298649606010886 6.785276128960724 -0.1101139611776731 1.0298649606012518 0.8688659555600425 6.730317168006189" Properties=species:S:1:pos:R:3 unique_starting_index=52 config_type=initial n_minim_iter=7 stress="-0.0022084436230514026 0.0004585367035939249 0.00039659652539267986 0.0004585367035939249 -0.002365092633395159 0.00033459650749366644 0.00039659652539267986 0.00033459650749366644 -0.0024625477458923113" pbc="T T T"
Si       4.31640181       1.84840254       2.60505940
Si       3.53040936       3.77587636       1.45369135
Si       2.54878834       3.14617438       3.52696978
Si       0.81643533       2.17123419       2.15534851
Si       2.54829755       0.39297545       1.83796127
Si       2.27770294       2.19614303       0.12400362
Si       6.35557502       5.65661581       7.12777431
Si       8.82633251       4.93996660       4.57038154
Si       6.64597803       7.81894525       4.22976053
Si       7.19367942       5.85666831       3.15620520
Si       5.12186485       6.42298502       5.34069119
Si       6.98429047       4.00303422       5.58628877
Si       7.43952950       1.70904257       5.65941514
Si       7.01579157       6.34888669       0.87562091
Si       2.93727564       6.61567918       6.15642805
Si       5.40723877       4.56192401       3.94568895
16
Lattice="6.872361402285462 -0.11557184894359314 -0.09996014139115905 1.0432142076900583 6.793703865548236 -0.09996014139098867 1.043214207690218 0.8801283120550106 6.737193658857577" Properties=species:S:1:pos:R:3 unique_starting_index=52 config_type=initial n_minim_iter=8 stress="0.00022035037344359006 -0.00010823379793234874 -9.361333095816526e-05 -0.00010823379793234874 0.0002573260772402522 -7.897873931774877e-05 -9.361333095816526e-05 -7.897873931774877e-05 0.00028032955083475515" pbc="T T T"
Si       4.30550379       1.84230017       2.63439740
Si       3.55632481       3.76039377       1.44342476
Si       2.54093814       3.17380611       3.51312833
Si       0.81787844       2.16799104       2.16015259
Si       2.55276589       0.39367620       1.83405966
Si       2.27474908       2.20118064       0.12525932
Si       6.38943320       5.69633825       7.15446529
Si       8.86371137       4.96793033       4.60584289
Si       6.69083423       7.84920343       4.25232200
Si       7.22806284       5.88392385       3.18617480
Si       5.16075927       6.45122273       5.36334328
Si       7.01694620       4.03691391       5.61096731
Si       7.44163125       1.74506709       5.68647289
Si       7.04765589       6.34557601       0.90737007
Si       2.97313971       6.64187892       6.14857653
Si       5.43916873       4.58886235       3.96898840
16
Lattice="6.887614416440381 -0.07954675362046706 -0.06880139767423225 1.0812932023609956 6.802673374938494 -0.06880139767407206 1.0812932023611472 0.9122544095117313 6.741579234181332" Properties=species:S:1:pos:R:3 unique_starting_index=52 config_type=initial n_minim_iter=9 stress="0.0019524686748746947 0.0006738092908561338 0.0005827896031793478 0.0006738092908561338 0.0017222765054235797 0.0004916819824237902 0.0005827896031793478 0.0004916819824237902 0.0015790684269266738" pbc="T T T"
Si       4.27642462       1.83181888       2.70909161
Si       3.62279894       3.71953871       1.42228865
Si       2.52571028       3.24384417       3.47574567
Si       0.81670522       2.15627616       2.17433760
Si       2.56474075       0.39044052       1.82042285
Si       2.26300392       2.21533518       0.12402263
Si       6.47474588       5.77867606       7.21198378
Si       8.94587773       5.04044350       4.67903220
Si       6.78636106       7.91624255       4.31353090
Si       7.31716809       5.94342171       3.26982967
Si       5.26581401       6.52367374       5.41016452
Si       7.09059773       4.13090954       5.67591461
Si       7.45918182       1.82284376       5.76235442
Si       7.13567679       6.34834557       0.97339955
Si       3.05276105       6.71757426       6.14180164
Si       5.52127085       4.65812943       4.02889873
16
Lattice="6.888059234344626 -0.0560065634768063 -0.048441069820682414 1.1045722046075772 6.799148255171477 -0.048441069820534984 1.104572204607718 0.9318942004603005 6.735156771166851" Properties=species:S:1:pos:R:3 unique_starting_index=52 config_type=initial n_minim_iter=10 stress="0.0007229681335937059 0.00017003500365962376 0.00014706628960798858 0.00017003500365962376 0.000664879402989284 0.0001240753857442037 0.00014706628960798858 0.0001240753857442037 0.0006287410082211793" pbc="T T T"
Si       4.23411143       1.81862445       2.76573393
Si       3.66905095       3.66871217       1.40106918
Si       2.50557972       3.29420466       3.42850763
Si       0.80573871       2.13997402       2.18393609
Si       2.56994118       0.37842687       1.80290764
Si       2.24508803       2.22367122       0.11465850
Si       6.52848862       5.82206548       7.24780332
Si       8.99602987       5.08639795       4.71680672
Si       6.83817996       7.95826969       4.35356194
Si       7.37399098       5.97143515       3.31430980
Si       5.32274840       6.57159445       5.43147549
Si       7.12777880       4.18231751       5.72026397
Si       7.45770287       1.87676855       5.81337542
Si       7.19285555       6.33707826       1.01940878
Si       3.10566694       6.76654412       6.12402152
Si       5.56718285       4.69686399       4.06240094
16
Lattice="6.89173388957103 -0.0304170936982418 -0.026308283674501016 1.1304150537246813 6.7984618120986555 -0.026308283674367817 1.13041505372481 0.9536970315610145 6.731287923447109" Properties=species:S:1:pos:R:3 unique_starting_index=52 config_type=initial n_minim_iter=11 stress="0.0009521213900027769 -8.515938210571866e-05 -7.365585957081136e-05 -8.515938210571866e-05 0.0009812142255904352 -6.214122361288503e-05 -7.365585957081136e-05 -6.214122361288503e-05 0.0009993135775025453" pbc="T T T"
Si       4.19352784       1.80937652       2.82316048
Si       3.71691976       3.61936411       1.38364201
Si       2.48963056       3.34549114       3.38218612
Si       0.80275821       2.12840018       2.19440193
Si       2.57800397       0.37402596       1.78994636
Si       2.23317758       2.23388526       0.11217139
Si       6.58458267       5.87306059       7.29298758
Si       9.05679298       5.13292526       4.76075799
Si       6.89789186       8.00971325       4.39326974
Si       7.43218517       6.00640918       3.36643499
Si       5.38835970       6.61942419       5.45857264
Si       7.17205196       4.24131663       5.76368944
Si       7.45998204       1.93405278       5.86615942
Si       7.25286400       6.32914016       1.06848832
Si       3.16251707       6.81771093       6.10909339
Si       5.61509589       4.73728678       4.09736333
16
Lattice="6.884289983135241 -0.03204391439159323 -0.027715349737823032 1.1275580891075154 6.791398099068721 -0.027715349737702854 1.1275580891076333 0.9512866968209683 6.7245007176069445" Properties=species:S:1:pos:R:3 unique_starting_index=52 config_type=initial n_minim_iter=12 stress="-0.000824722327579725 -0.0005510156497887147 -0.00047658320572898836 -0.0005510156497887147 -0.0006364799130743583 -0.00040207885333544185 -0.00047658320572898836 -0.00040207885333544185 -0.0005193697848851153" pbc="T T T"
Si       4.17471929       1.81033527       2.82676291
Si       3.71740299       3.60020060       1.38407161
Si       2.48740872       3.34636089       3.36316074
Si       0.80393250       2.12631038       2.19519706
Si       2.57868043       0.37510172       1.78776379
Si       2.23131534       2.23488961       0.11355045
Si       6.57318269       5.85959205       7.29708433
Si       9.05695637       5.12133226       4.74683966
Si       6.88269614       8.01247465       4.38380353
Si       7.42082907       5.99640914       3.35775371
Si       5.37655907       6.60991932       5.44992805
Si       7.16028261       4.23135545       5.75552957
Si       7.45191449       1.92775854       5.86382930
Si       7.24833863       6.32172876       1.06259557
Si       3.15495432       6.81441183       6.10260857
Si       5.59923217       4.72390303       4.08578749
16
Lattice="6.884354226694837 -0.028024205965975952 -0.024238632645802588 1.1315312250220808 6.790784605738234 -0.024238632645715047 1.1315312250221705 0.9546387115656669 6.723392596243639" Properties=species:S:1:pos:R:3 unique_starting_index=52 config_type=initial n_minim_iter=13 stress="-0.0025354503200727425 -0.00023761003955380557 -0.00020551313634614252 -0.00023761003955380557 -0.0024542760601880247 -0.0001733852246872098 -0.00020551313634614252 -0.0001733852246872098 -0.002403775603074809" pbc="T T T"
Si       4.15552007       1.81249746       2.84932365
Si       3.73648396       3.57746400       1.38295998
Si       2.48630737       3.36590636       3.34082167
Si       0.81863907       2.11984099       2.19461614
Si       2.57967100       0.38985208       1.78144565
Si       2.22741454       2.23656085       0.12905736
Si       6.57192279       5.86833226       7.31996598
Si       9.08030533       5.11606578       4.75219114
Si       6.89109943       8.03472640       4.37782081
Si       7.41625326       6.00845817       3.36834426
Si       5.38783059       6.60335190       5.46032510
Si       7.17138916       4.24089307       5.74753238
Si       7.45063579       1.93368216       5.87118139
Si       7.25613627       6.31909958       1.06739785
Si       3.16057807       6.82136180       6.09931478
Si       5.60001805       4.72456606       4.08636095
16
Lattice="6.891483297737846 -0.021246360890718994 -0.018376354260164963 1.139412662127195 6.796670672927685 -0.01837635426008993 1.1394126621272735 0.9612880419570281 6.728372405494603" Properties=species:S:1:pos:R:3 unique_starting_index=52 config_type=initial n_minim_iter=14 stress="-7.228521812954618e-05 0.0004325834627805883 0.000374149107228124 0.0004325834627805883 -0.00022006787283209616 0.0003156582989135883 0.000374149107228124 0.0003156582989135883 -0.00031200701248979874" pbc="T T T"
Si       4.14733343       1.80969531       2.87296766
Si       3.75777064       3.56552272       1.37677973
Si       2.48216679       3.38820862       3.32989568
Si       0.81912437       2.11327354       2.19763869
Si       2.58176809       0.38998620       1.77451117
Si       2.22102257       2.23978014       0.13018941
Si       6.59175415       5.88937784       7.33727415
Si       9.10351700       5.13221949       4.77052275
Si       6.91518365       8.05416034       4.39116413
Si       7.43681030       6.02718682       3.38679341
Si       5.41194827       6.62008705       5.47619954
Si       7.19331172       4.26161539       5.76180516
Si       7.45703993       1.95124287       5.88967211
Si       7.27774559       6.32190531       1.08211054
Si       3.17896636       6.84014313       6.09997096
Si       5.61992717       4.74136278       4.10088873
16
Lattice="6.894627847481093 -0.036208308146277075 -0.0313172077363328 1.125193791762875 6.802289550424857 -0.03131720773627094 1.1251937917629424 0.9492920105755287 6.735797545500955" Properties=species:S:1:pos:R:3 unique_starting_index=52 config_type=initial n_minim_iter=15 stress="0.0008986453454562235 0.00024688384796743486 0.00021353421767985684 0.00024688384796743486 0.0008143028922777214 0.00018015236869619553 0.00021353421767985684 0.00018015236869619553 0.0007618314260039882" pbc="T T T"
Si       4.15790976       1.80714920       2.86203441
Si       3.74852510       3.57783150       1.37583579
Si       2.48143783       3.37895368       3.34221201
Si       0.81446011       2.10751118       2.19348216
Si       2.57610976       0.38622091       1.76940796
Si       2.21455713       2.23514425       0.12719885
Si       6.56697181       5.86617281       7.31770441
Si       9.07695894       5.11161470       4.75038015
Si       6.88813718       8.03183753       4.37367719
Si       7.41438181       6.01603828       3.36276038
Si       5.38314556       6.60225361       5.46863078
Si       7.17854594       4.23491771       5.74524862
Si       7.45670680       1.92302584       5.87201919
Si       7.25646194       6.32520290       1.05673202
Si       3.15109609       6.82331184       6.10689144
Si       5.60327613       4.72731480       4.08873839
16
Lattice="6.892236648005526 -0.05289712545961862 -0.0457516617450956 1.1083406224029597 6.802742475114292 -0.04575166174509449 1.1083406224029748 0.9350735007122916 6.738325900811116" Properties=species:S:1:pos:R:3 unique_starting_index=52 config_type=initial n_minim_iter=16 stress="0.0012678351363606258 -5.1354495209488484e-05 -4.441741348844504e-05 -5.1354495209488484e-05 0.0012853792735886902 -3.7473629932043335e-05 -4.441741348844504e-05 -3.7473629932043335e-05 0.0012962939028167604" pbc="T T T"
Si       4.12957399       1.79802082       2.88398679
Si       3.76387042       3.54646414       1.36363912
Si       2.46766873       3.39687321       3.31292974
Si       0.79477652       2.07829673       2.19673315
Si       2.57181665       0.36698555       1.74002996
Si       2.18244555       2.23627406       0.11239795
Si       6.54518725       5.83110027       7.29484804
Si       9.04601392       5.09480047       4.71896756
Si       6.84989739       8.00697620       4.36156535
Si       7.39165804       6.00305394       3.33174222
Si       5.34721881       6.58533751       5.46025203
Si       7.16192086       4.20131040       5.72971656
Si       7.44818707       1.89823992       5.85760368
Si       7.23744513       6.31980811       1.03428226
Si       3.12522953       6.80843797       6.10478822
Si       5.58222226       4.70955229       4.07337527
16
Lattice="6.884485829673398 -0.0791289315199571 -0.0684400159307845 1.0811782824085354 6.799519104203308 -0.06844001593083693 1.0811782824085052 0.9121574550195441 6.738405810090283" Properties=species:S:1:pos:R:3 unique_starting_index=52 config_type=initial n_minim_iter=17 stress="-0.0026689939348078923 -0.0006951829074598883 -0.000601276023161932 -0.0006951829074598883 -0.002431499937906328 -0.0005072784164964323 -0.000601276023161932 -0.0005072784164964323 -0.002283749217144547" pbc="T T T"
Si       4.13634400       1.80546634       2.85678773
Si       3.73953711       3.55748867       1.37492660
Si       2.47614786       3.37073911       3.32221254
Si       0.79213327       2.06907871       2.19837102
Si       2.57165977       0.36433081       1.73067213
Si       2.17291407       2.23774303       0.11111949
Si       6.49971476       5.76765965       7.23714065
Si       8.97305581       5.06113162       4.66450541
Si       6.77970607       7.94495105       4.33609653
Si       7.32578622       5.96849012       3.28119409
Si       5.28191138       6.52966704       5.43333352
Si       7.11675932       4.14277129       5.67850645
Si       7.44533887       1.84220742       5.79848021
Si       7.17133495       6.32821120       0.98735497
Si       3.06951744       6.75088666       6.11986632
Si       5.53687557       4.67129466       4.04028557
16
Lattice="6.900205178241496 -0.08362041132358941 -0.0723247764526749 1.0793976779499932 6.815770281329704 -0.07232477645280615 1.0793976779498957 0.9106552128290427 6.755047185956101" Properties=species:S:1:pos:R:3 unique_starting_index=52 config_type=initial n_minim_iter=18 stress="0.0009527282966304007 2.7977796424946954e-05 2.4198492210739402e-05 2.7977796424946954e-05 0.0009431702959596239 2.0415536855145063e-05 2.4198492210739402e-05 2.0415536855145063e-05 0.0009372240341283014" pbc="T T T"
Si       4.13439449       1.81144106       2.88515365
Si       3.76772666       3.55069575       1.37675113
Si       2.48170903       3.39838703       3.31522761
Si       0.80188724       2.05936501       2.21746725
Si       2.59054934       0.37099945       1.71830785
Si       2.16498138       2.25826120       0.11950034
Si       6.52000555       5.75816231       7.23426143
Si       8.97231467       5.08184291       4.65552213
Si       6.77376079       7.94521470       4.35788621
Si       7.31820296       5.98222727       3.28606093
Si       5.28733324       6.52104782       5.44622591
Si       7.12902351       4.14617678       5.66811927
Si       7.47527586       1.83214103       5.79249475
Si       7.16910722       6.35896232       0.97825623
Si       3.06463542       6.74946059       6.15160767
Si       5.54680503       4.67967184       4.04753114
16
Lattice="6.905132785430519 -0.06544779433420995 -0.05660695779433328 1.0981405311715382 6.817567716716078 -0.056606957794483145 1.0981405311714243 0.9264679918799562 6.7545607540166515" Properties=species:S:1:pos:R:3 unique_starting_index=52 config_type=initial n_minim_iter=19 stress="0.002189540231599474 0.0008773418914800559 0.0007588285583573152 0.0008773418914800559 0.0018898156120522789 0.0006402007308605515 0.0007588285583573152 0.0006402007308605515 0.0017033497259783027" pbc="T T T"
Si       4.12061893       1.81016337       2.91784101
Si       3.79711004       3.53170157       1.37077618
Si       2.47813011       3.42880732       3.29729275
Si       0.81294042       2.06081249       2.22882553
Si       2.60369530       0.37996721       1.71810337
Si       2.16826928       2.27103594       0.12840396
Si       6.56213862       5.78978598       7.26625433
Si       9.01510802       5.11727652       4.68220518
Si       6.81202714       7.98209144       4.38910464
Si       7.35002561       6.00761354       3.32069879
Si       5.33008452       6.54602886       5.46635551
Si       7.15940549       4.18435760       5.68993866
Si       7.48657058       1.86839564       5.82058940
Si       7.20356352       6.36453502       1.01008366
Si       3.10227417       6.77798672       6.15253552
Si       5.57591004       4.70422686       4.06876921
16
Lattice="6.902290780526067 -0.06689554060669187 -0.05785913921579178 1.096234930953621 6.81501005196952 -0.05785913921598938 1.0962349309534658 0.9248602945433237 6.752210239915062" Properties=species:S:1:pos:R:3 unique_starting_index=52 config_type=initial n_minim_iter=20 stress="0.001080367172515841 0.00026585358790390766 0.0002299414821085353 0.00026585358790390766 0.0009895441236420226 0.00019399468204035137 0.0002299414821085353 0.00019399468204035137 0.0009330409231031007" pbc="T T T"
Si       4.10926572       1.80519093       2.92975831
Si       3.80611662       3.51864548       1.36413823
Si       2.47131706       3.43910812       3.28532954
Si       0.81617802       2.05405234       2.23791035
Si       2.61214177       0.38180892       1.71010458
Si       2.16215078       2.28064988       0.13137916
Si       6.56956604       5.77573899       7.25803038
Si       9.00634128       5.12630900       4.66948998
Si       6.79943129       7.97534927       4.39987523
Si       7.33896071       6.00607821       3.31185967
Si       5.31938139       6.53663194       5.46611001
Si       7.15602902       4.17407619       5.68067520
Si       7.48700815       1.86781129       5.81035973
Si       7.19357582       6.36668496       1.01097961
Si       3.10177184       6.76794017       6.15453390
Si       5.56900220       4.69839893       4.06372853
16
Lattice="6.900136709682425 -0.07046671879232237 -0.060947914550155455 1.0923520462622758 6.813488033143611 -0.060947914550395575 1.092352046262084 0.9215844220292225 6.7511492339565855" Properties=species:S:1:pos:R:3 unique_starting_index=52 config_type=initial n_minim_iter=21 stress="-0.00012186880706748221 -0.000179738017622692 -0.0001554585984322454 -0.000179738017622692 -6.0465254501130786e-05 -0.0001311557231700599 -0.0001554585984322454 -0.0001311557231700599 -2.226462936210855e-05" pbc="T T T"
Si       4.10580766       1.80266344       2.93418529
Si       3.80949356       3.51456050       1.36099915
Si       2.46824341       3.44305899       3.28173957
Si       0.82100288       2.04996553       2.24473099
Si       2.61902669       0.38552763       1.70507750
Si       2.15893471       2.28818387       0.13578350
Si       6.57003362       5.75849249       7.24641408
Si       8.99263916       5.12912386       4.65409753
Si       6.78250975       7.96433913       4.40487892
Si       7.32298671       6.00422867       3.30072732
Si       5.30557016       6.52278574       5.46588408
Si       7.15151626       4.16083577       5.66700609
Si       7.48920733       1.85919182       5.79745353
Si       7.18013255       6.37121230       1.00431003
Si       3.09364572       6.75569024       6.15997514
Si       5.55857396       4.68960093       4.05611899
