8
Lattice="2.7980899999999993 -1.3485812485137213e-47 -1.0786151380396024e-79 6.897824407155811e-32 6.191839999999999 -1.8556329809942927e-47 8.331019508568165e-95 -7.632032042786987e-32 9.54225" Properties=species:S:1:pos:R:3 unique_starting_index=54 config_type=initial n_minim_iter=1 pbc="T T T"
Si       0.68319481       0.57843612       1.24409565
Si       2.11489519       5.61340388       1.24409565
Si       0.71585019       3.67435612       6.01522065
Si       2.08223981       2.51748388       6.01522065
Si       0.75146848       5.44502732       0.35019962
Si       2.04662152       0.74681268       0.35019962
Si       0.64757652       2.34910732       5.12132462
Si       2.15051348       3.84273268       5.12132462
8
Lattice="2.822662006525835 7.757077817775414e-34 6.20422504793462e-66 7.130053975718244e-32 6.234410525769278 -4.390585419360188e-34 -4.914429276915968e-81 -7.752167617015053e-32 9.605494112690613" Properties=species:S:1:pos:R:3 unique_starting_index=54 config_type=initial n_minim_iter=2 pbc="T T T"
Si       0.68927414       0.58343795       1.25319712
Si       2.13338787       5.65097258       1.25319712
Si       0.72205686       3.70064321       6.05594418
Si       2.10060514       2.53376732       6.05594418
Si       0.75774319       5.48203091       0.35166481
Si       2.06491881       0.75237962       0.35166481
Si       0.65358781       2.36482564       5.15441187
Si       2.16907420       3.86958488       5.15441187
8
Lattice="7.2121911663808485 9.97516226290888e-32 7.979205874086679e-64 3.985011690052935e-31 12.237994047903445 -5.42274063255587e-32 6.030904441515404e-80 -2.344134829147512e-31 17.867055932058637" Properties=species:S:1:pos:R:3 unique_starting_index=54 config_type=initial n_minim_iter=3 pbc="T T T"
Si       1.77951587       1.35355122       2.50494303
Si       5.43267530      10.88444283       2.50494303
Si       1.82657972       7.47254824      11.43847100
Si       5.38561145       4.76544581      11.43847100
Si       1.85986069      10.66286048       0.48024000
Si       5.35233047       1.57513357       0.48024000
Si       1.74623489       4.54386346       9.41376797
Si       5.46595628       7.69413059       9.41376797
8
Lattice="6.5643250399561515 -4.953109255570326e-31 -3.840241542109249e-63 -9.050108865171208e-31 11.723988688156926 2.212108951922116e-31 6.061150812724375e-78 1.917395872663659e-31 17.53214443393552" Properties=species:S:1:pos:R:3 unique_starting_index=54 config_type=initial n_minim_iter=4 pbc="T T T"
Si       1.61884470       1.28385739       2.44995084
Si       4.94548034      10.44013130       2.44995084
Si       1.66331782       7.14585173      11.21602306
Si       4.90100722       4.57813695      11.21602306
Si       1.69185916      10.22946164       0.47927601
Si       4.87246588       1.49452705       0.47927601
Si       1.59030336       4.36746730       9.24534823
Si       4.97402168       7.35652139       9.24534823
8
Lattice="5.783886179642768 8.418254883201829e-31 3.0834888117329154e-63 2.0178207430591126e-30 10.508028707339788 -2.6881414419631454e-31 -1.804928234454229e-76 -5.375322558663142e-31 16.843820212591037" Properties=species:S:1:pos:R:3 unique_starting_index=54 config_type=initial n_minim_iter=5 pbc="T T T"
Si       1.42806627       1.12165789       2.33728527
Si       4.35581991       9.38637081       2.33728527
Si       1.46387682       6.37567225      10.75919538
Si       4.32000936       4.13235646      10.75919538
Si       1.48777048       9.20241475       0.47693809
Si       4.29611570       1.30561396       0.47693809
Si       1.40417261       3.94840039       8.89884820
Si       4.37971357       6.55962831       8.89884820
8
Lattice="5.404237756774574 -1.334098284847116e-30 -2.157855428110498e-63 -2.800784548213476e-30 9.860780401319701 7.517175391779929e-31 4.54806853092446e-75 1.0282588622653818e-30 16.202461500638307" Properties=species:S:1:pos:R:3 unique_starting_index=54 config_type=initial n_minim_iter=6 pbc="T T T"
Si       1.33681216       1.03651272       2.23265282
Si       4.06742560       8.82426768       2.23265282
Si       1.36530672       5.96690292      10.33388357
Si       4.03893104       3.89387748      10.33388357
Si       1.38838256       8.65469305       0.47441394
Si       4.01585519       1.20608735       0.47441394
Si       1.31373631       3.72430285       8.57564469
Si       4.09050144       6.13647755       8.57564469
8
Lattice="4.797346678563951 9.877102221228582e-31 7.8666939027749e-62 2.2668547436001918e-30 9.213929868595532 -1.3642879349237697e-30 -9.768225821858665e-74 -2.2132215496229167e-30 15.294560360921615" Properties=species:S:1:pos:R:3 unique_starting_index=54 config_type=initial n_minim_iter=7 pbc="T T T"
Si       1.18780218       0.95050335       2.08523159
Si       3.60954450       8.26342652       2.08523159
Si       1.21087116       5.55746828       9.73251177
Si       3.58647552       3.65646159       9.73251177
Si       1.23392133       8.10480580       0.47014532
Si       3.56342535       1.10912406       0.47014532
Si       1.16475201       3.49784087       8.11742550
Si       3.63259467       5.71608900       8.11742550
8
Lattice="3.504789411784146 -6.736479835933032e-31 1.2977857378550435e-61 -1.2767332500317144e-30 8.320231081500832 1.7054133638486648e-30 1.6914011349347518e-72 2.5357051601968552e-30 13.748397350652247" Properties=species:S:1:pos:R:3 unique_starting_index=54 config_type=initial n_minim_iter=8 pbc="T T T"
Si       0.86872343       0.83303166       1.83633396
Si       2.63606598       7.48719942       1.83633396
Si       0.88367127       4.99314720       8.71053264
Si       2.62111814       3.32708388       8.71053264
Si       0.90489927       7.34300733       0.46071389
Si       2.59989014       0.97722375       0.46071389
Si       0.84749543       3.18289179       7.33491257
Si       2.65729398       5.13733929       7.33491257
8
Lattice="2.633585558620323 3.281447430867646e-31 1.1270690731031305e-61 8.522283074173078e-31 6.838429551783478 -4.930580205639002e-31 -2.439588096153944e-71 -8.071351159922529e-31 11.913638883644326" Properties=species:S:1:pos:R:3 unique_starting_index=54 config_type=initial n_minim_iter=9 pbc="T T T"
Si       0.65374026       0.65029427       1.55179554
Si       1.97984530       6.18813528       1.55179554
Si       0.66305252       4.06950905       7.50861498
Si       1.97053304       2.76892050       7.50861498
Si       0.68026182       6.07819637       0.43870545
Si       1.95332374       0.76023318       0.43870545
Si       0.63653096       2.65898160       6.39552490
Si       1.99705460       4.17944796       6.39552490
8
Lattice="2.9265390719193607 2.35506573830454e-31 1.3533406411878614e-61 6.604915853077471e-31 7.630872929824852 1.113200697414921e-31 4.715656343399228e-70 1.2902605154068932e-31 13.882184758327567" Properties=species:S:1:pos:R:3 unique_starting_index=54 config_type=initial n_minim_iter=10 pbc="T T T"
Si       0.72626009       0.77472618       1.87645434
Si       2.20027898       6.85614675       1.87645434
Si       0.73700944       4.59016265       8.81754672
Si       2.18952963       3.04071028       8.81754672
Si       0.74753662       6.75465409       0.44294637
Si       2.17900245       0.87621884       0.44294637
Si       0.71573291       2.93921762       7.38403875
Si       2.21080616       4.69165531       7.38403875
8
Lattice="2.7769084804357287 -2.14436053501282e-31 1.2539234574829194e-61 -3.419887731624563e-31 7.247874060313596 -1.6550733983399036e-30 -1.5444712835667806e-68 -2.5917669238072942e-30 13.174938569641702" Properties=species:S:1:pos:R:3 unique_starting_index=54 config_type=initial n_minim_iter=11 pbc="T T T"
Si       0.68816342       0.72516680       1.76417697
Si       2.08874506       6.52270726       1.76417697
Si       0.70029082       4.34910383       8.35164626
Si       2.07661766       2.89877023       8.35164626
Si       0.70884266       6.42317306       0.43705882
Si       2.06806582       0.82470100       0.43705882
Si       0.67961158       2.79923603       7.02452811
Si       2.09729690       4.44863803       7.02452811
8
Lattice="2.782390513587347 -6.137981652203065e-32 7.468447864385407e-62 -4.524887074894982e-33 7.182057665970032 3.702092200409561e-31 4.7848859843074535e-67 4.179570604675022e-31 13.603901699745641" Properties=species:S:1:pos:R:3 unique_starting_index=54 config_type=initial n_minim_iter=12 pbc="T T T"
Si       0.69072424       0.72232973       1.83543357
Si       2.09166627       6.45972793       1.83543357
Si       0.70047101       4.31335857       8.63738442
Si       2.08191950       2.86869910       8.63738442
Si       0.71026075       6.36732210       0.43747231
Si       2.07212976       0.81473556       0.43747231
Si       0.68093450       2.77629327       7.23942316
Si       2.10145601       4.40576439       7.23942316
8
Lattice="2.7451960113940532 -5.815197617459644e-32 -4.573921499386658e-62 -6.052109164643149e-34 7.0059776898784145 1.504360164217713e-29 -1.947877148969138e-65 2.2214889523094722e-29 14.164152936956793" Properties=species:S:1:pos:R:3 unique_starting_index=54 config_type=initial n_minim_iter=13 pbc="T T T"
Si       0.68337176       0.71029724       1.92887630
Si       2.06182426       6.29568045       1.92887630
Si       0.68922625       4.21328608       9.01095277
Si       2.05596976       2.79269161       9.01095277
Si       0.70074569       6.21802672       0.43763496
Si       2.04445032       0.78795097       0.43763496
Si       0.67185231       2.71503788       7.51971143
Si       2.07334370       4.29093981       7.51971143
8
Lattice="2.6829466116550065 -5.75590154356849e-32 3.7510680361484675e-61 -2.358730621310889e-34 6.954284240253697 -3.5842047385683135e-29 9.72495272415244e-64 -5.621083938031869e-29 14.050781977778335" Properties=species:S:1:pos:R:3 unique_starting_index=54 config_type=initial n_minim_iter=14 pbc="T T T"
Si       0.66747688       0.70813337       1.91099418
Si       2.01546973       6.24615087       1.91099418
Si       0.67399643       4.18527549       8.93638517
Si       2.00895019       2.76900875       8.93638517
Si       0.68432836       6.17510114       0.43657534
Si       1.99861825       0.77918310       0.43657534
Si       0.65714495       2.69795902       7.46196633
Si       2.02580166       4.25632522       7.46196633
8
Lattice="2.6655500136425734 -5.729627451990711e-32 -1.4875435232254308e-60 -9.83949770602063e-35 6.929991252520582 1.8768078144448692e-28 -5.027875847880581e-62 2.8687534951414803e-28 14.15980125899768" Properties=species:S:1:pos:R:3 unique_starting_index=54 config_type=initial n_minim_iter=15 pbc="T T T"
Si       0.66296896       0.70861878       1.92912052
Si       2.00258106       6.22137247       1.92912052
Si       0.66980605       4.17361440       9.00902115
Si       1.99574396       2.75637685       9.00902115
Si       0.67933905       6.15515635       0.43666367
Si       1.98621097       0.77483490       0.43666367
Si       0.65343596       2.69016073       7.51656430
Si       2.01211405       4.23983053       7.51656430
8
Lattice="2.624868694495229 -5.693438243306232e-32 1.0005620854704969e-59 -4.2752498695503126e-35 6.889216531210662 -1.101163203875042e-27 2.807509703337924e-60 -1.6893040636810537e-27 14.307427304707971" Properties=species:S:1:pos:R:3 unique_starting_index=54 config_type=initial n_minim_iter=16 pbc="T T T"
Si       0.65195651       0.71060182       1.95393205
Si       1.97291219       6.17861471       1.95393205
Si       0.66047784       4.15521009       9.10764571
Si       1.96439085       2.73400644       9.10764571
Si       0.66704854       6.12178650       0.43651712
Si       1.95782016       0.76743003       0.43651712
Si       0.64538581       2.67717824       7.59023078
Si       1.97948288       4.21203829       7.59023078
8
Lattice="2.5808743700174035 -5.698949228813612e-32 -2.2675428161998096e-58 -2.0159090990495212e-35 6.897111199309412 2.1308005085761726e-26 -1.7263427352522477e-58 3.2803515082359396e-26 14.393570914326194" Properties=species:S:1:pos:R:3 unique_starting_index=54 config_type=initial n_minim_iter=17 pbc="T T T"
Si       0.64006479       0.72133904       1.96916866
Si       1.94080958       6.17577216       1.96916866
Si       0.65037239       4.16989464       9.16595412
Si       1.93050198       2.72721656       9.16595412
Si       0.65224453       6.12923850       0.43567317
Si       1.92862985       0.76787270       0.43567317
Si       0.63819266       2.68068290       7.63245863
Si       1.94268171       4.21642830       7.63245863
8
Lattice="2.5825926138466455 -5.735111212884492e-32 1.2778323693192052e-56 -8.660968563170597e-36 6.941510329270544 -1.1389681450276827e-24 1.1479218202474926e-56 -1.7556113745867082e-24 14.474860962051086" Properties=species:S:1:pos:R:3 unique_starting_index=54 config_type=initial n_minim_iter=18 pbc="T T T"
Si       0.64037935       0.73292233       1.98323540
Si       1.94221327       6.20858800       1.98323540
Si       0.65091696       4.20367749       9.22066588
Si       1.93167565       2.73783284       9.22066588
Si       0.65083241       6.16658435       0.43518818
Si       1.93176021       0.77492598       0.43518818
Si       0.64046390       2.69582919       7.67261866
Si       1.94212871       4.24568114       7.67261866
8
Lattice="2.568948423565382 -5.729146211523644e-32 -8.451851856610762e-55 -3.021766804015732e-36 6.934598127656759 7.483731136577732e-23 -7.736581063179955e-55 1.1540413660503537e-22 14.419752349092477" Properties=species:S:1:pos:R:3 unique_starting_index=54 config_type=initial n_minim_iter=19 pbc="T T T"
Si       0.63704233       0.73415758       1.97452134
Si       1.93190609       6.20044055       1.97452134
Si       0.64743188       4.20145665       9.18439752
Si       1.92151655       2.73314148       9.18439752
Si       0.64710244       6.16089555       0.43469482
Si       1.92184599       0.77370257       0.43469482
Si       0.63737177       2.69359649       7.64457100
Si       1.93157665       4.24100164       7.64457100
8
Lattice="2.5675466031304364 -5.730804138447922e-32 5.649471297521909e-53 -1.0541343119127862e-36 6.936712541945788 -4.9919972670403215e-21 5.200717319393665e-53 -7.692047532600291e-21 14.433048082442358" Properties=species:S:1:pos:R:3 unique_starting_index=54 config_type=initial n_minim_iter=20 pbc="T T T"
Si       0.63674389       0.73612740       1.97691225
Si       1.93080271       6.20058514       1.97691225
Si       0.64702941       4.20448368       9.19343629
Si       1.92051720       2.73222887       9.19343629
Si       0.64647084       6.16268390       0.43452534
Si       1.92107576       0.77402865       0.43452534
Si       0.63730246       2.69432762       7.65104938
Si       1.93024415       4.24238492       7.65104938
8
Lattice="2.5646090061983973 -5.732083866228834e-32 -3.8175987801987427e-51 -3.6246365516503885e-37 6.93829938856467 3.3726343958975346e-19 -3.5163668129599227e-51 5.197584441048445e-19 14.436307084342346" Properties=species:S:1:pos:R:3 unique_starting_index=54 config_type=initial n_minim_iter=21 pbc="T T T"
Si       0.63607904       0.73825027       1.97769944
Si       1.92852996       6.20004911       1.97769944
Si       0.64622546       4.20739997       9.19585299
Si       1.91838355       2.73089942       9.19585299
Si       0.64544268       6.16401875       0.43428265
Si       1.91916633       0.77428064       0.43428265
Si       0.63686182       2.69486906       7.65243619
Si       1.92774718       4.24343033       7.65243619
8
Lattice="2.5510859574013223 -5.740695974290966e-32 2.5990732717624624e-49 -1.2316479575266116e-37 6.9487368553776685 -2.294853354336048e-17 2.3958700696027214e-49 -3.536481203826753e-17 14.46023121145382" Properties=species:S:1:pos:R:3 unique_starting_index=54 config_type=initial n_minim_iter=22 pbc="T T T"
Si       0.63313913       0.75053416       1.98308085
Si       1.91794683       6.19820269       1.98308085
Si       0.64240385       4.22490259       9.21319646
Si       1.90868210       2.72383427       9.21319646
Si       0.64051396       6.17265058       0.43289842
Si       1.91057200       0.77608628       0.43289842
Si       0.63502902       2.69828215       7.66301403
Si       1.91605694       4.25045471       7.66301403
8
Lattice="2.529805604491186 -5.748687322565899e-32 -1.780473768209384e-47 -3.7954165777118233e-38 6.958414518469499 1.5697263848675635e-15 -1.6483590813938195e-47 2.421791695509537e-15 14.408077867025467" Properties=species:S:1:pos:R:3 unique_starting_index=54 config_type=initial n_minim_iter=23 pbc="T T T"
Si       0.62938349       0.77647962       1.97817026
Si       1.90042211       6.18193490       1.97817026
Si       0.63551931       4.25568688       9.18220919
Si       1.89428629       2.70272764       9.18220919
Si       0.63342160       6.17865062       0.42909536
Si       1.89638401       0.77976390       0.42909536
Si       0.63148121       2.69944336       7.63313430
Si       1.89832440       4.25897116       7.63313430
8
Lattice="2.541594662275146 -5.72523174348809e-32 3.296577889787614e-46 -1.0010349533488009e-38 6.930024578492218 1.4263127379525135e-15 1.1637412233398199e-45 2.148190627430176e-15 14.540946740809956" Properties=species:S:1:pos:R:3 unique_starting_index=54 config_type=initial n_minim_iter=24 pbc="T T T"
Si       0.63309319       0.77510328       2.00035738
Si       1.90850148       6.15492130       2.00035738
Si       0.63770414       4.24011557       9.27083075
Si       1.90389052       2.68990901       9.27083075
Si       0.63643876       6.15295856       0.42910764
Si       1.90515591       0.77706602       0.42910764
Si       0.63435858       2.68794627       7.69958101
Si       1.90723609       4.24207831       7.69958101
8
Lattice="2.530392068959546 -5.71377489864216e-32 -2.4499383422405656e-44 -3.275962119296286e-39 6.916157172134013 1.2942128735597016e-15 -8.352217440644125e-44 1.956182041980125e-15 14.465589998106685" Properties=species:S:1:pos:R:3 unique_starting_index=54 config_type=initial n_minim_iter=25 pbc="T T T"
Si       0.63049308       0.77408886       1.98828565
Si       1.89989899       6.14206832       1.98828565
Si       0.63470295       4.23216744       9.22108065
Si       1.89568912       2.68398973       9.22108065
Si       0.63359515       6.14041581       0.42858895
Si       1.89679692       0.77574136       0.42858895
Si       0.63160089       2.68233723       7.66138395
Si       1.89879118       4.23381994       7.66138395
8
Lattice="2.5314602441021066 -5.716304008107601e-32 1.7327667738879135e-42 -1.1230169912027063e-39 6.919218614387383 1.1728200787514217e-15 5.910008144661298e-42 1.7724579478340423e-15 14.456998357224384" Properties=species:S:1:pos:R:3 unique_starting_index=54 config_type=initial n_minim_iter=26 pbc="T T T"
Si       0.63089986       0.77537347       1.98707316
Si       1.90056039       6.14384514       1.98707316
Si       0.63483026       4.23498278       9.21557234
Si       1.89662998       2.68423583       9.21557234
Si       0.63382453       6.14237822       0.42836597
Si       1.89763571       0.77684040       0.42836597
Si       0.63190559       2.68276891       7.65686515
Si       1.89955465       4.23644970       7.65686515
8
Lattice="2.531166327060756 -5.713100517307446e-32 -1.2203217228264228e-40 -3.789450287935769e-40 6.915341035333737 1.064445843492906e-15 -4.1618394521443605e-40 1.6053411963647057e-15 14.449488871956868" Properties=species:S:1:pos:R:3 unique_starting_index=54 config_type=initial n_minim_iter=27 pbc="T T T"
Si       0.63104332       0.77593800       1.98609111
Si       1.90012301       6.13940303       1.98609111
Si       0.63453984       4.23360852       9.21083555
Si       1.89662648       2.68173252       9.21083555
Si       0.63370846       6.13823791       0.42809336
Si       1.89745786       0.77710312       0.42809336
Si       0.63187470       2.68056740       7.65283780
Si       1.89929163       4.23477364       7.65283780
8
Lattice="2.530831661933999 -5.707223674549488e-32 8.572397545061972e-39 -1.300493397528803e-40 6.9082275084355 9.67597518940935e-16 2.9234453766252947e-38 1.4539134244041544e-15 14.446582566023972" Properties=species:S:1:pos:R:3 unique_starting_index=54 config_type=initial n_minim_iter=28 pbc="T T T"
Si       0.63116494       0.77612034       1.98588823
Si       1.89966672       6.13210717       1.98588823
Si       0.63425089       4.23023410       9.20917951
Si       1.89658077       2.67799341       9.20917951
Si       0.63357631       6.13119961       0.42781066
Si       1.89725535       0.77702790       0.42781066
Si       0.63183952       2.67708586       7.65110195
Si       1.89899215       4.23114165       7.65110195
8
Lattice="2.530493334372872 -5.69925653675506e-32 -6.014264608096833e-37 -4.60905641530441e-41 6.898583804692805 8.811120605371369e-16 -2.0510589131377377e-36 1.3179023035341933e-15 14.442973444262242" Properties=species:S:1:pos:R:3 unique_starting_index=54 config_type=initial n_minim_iter=29 pbc="T T T"
Si       0.63131582       0.77629891       1.98566403
Si       1.89917751       6.12228489       1.98566403
Si       0.63393085       4.22559081       9.20715075
Si       1.89656249       2.67299299       9.20715075
Si       0.63342386       6.12164227       0.42743186
Si       1.89706947       0.77694153       0.42743186
Si       0.63182281       2.67235037       7.64891858
Si       1.89867053       4.22623344       7.64891858
8
Lattice="2.5286997601816674 -5.651776511231123e-32 4.1945547799557307e-35 -1.6644211973607107e-41 6.841112286446569 8.164211706682636e-16 1.4306935368671347e-34 1.2045191057773497e-15 14.414437976573463" Properties=species:S:1:pos:R:3 unique_starting_index=54 config_type=initial n_minim_iter=30 pbc="T T T"
Si       0.63222887       0.77825841       1.98360007
Si       1.89647089       6.06285388       1.98360007
Si       0.63212101       4.19881455       9.19081906
Si       1.89657875       2.64229773       9.19081906
Si       0.63248740       6.06352362       0.42472819
Si       1.89621236       0.77758866       0.42472819
Si       0.63186248       2.64296748       7.63194717
Si       1.89683728       4.19814481       7.63194717
8
Lattice="2.5065760116378653 -5.576928306659249e-32 -2.875602608724622e-33 -7.32809052641475e-42 6.750513345020052 5.065360067554272e-16 -9.800868619379587e-33 7.101525998507013e-16 14.351945442896145" Properties=species:S:1:pos:R:3 unique_starting_index=54 config_type=initial n_minim_iter=31 pbc="T T T"
Si       0.62638094       0.77581869       1.97831413
Si       1.88019507       5.97469465       1.97831413
Si       0.62690707       4.15107537       9.15428685
Si       1.87966895       2.59943798       9.15428685
Si       0.62626924       5.97327009       0.41957303
Si       1.88030677       0.77724326       0.41957303
Si       0.62701876       2.59801341       7.59554575
Si       1.87955725       4.15249993       7.59554575
8
Lattice="2.520454492571759 -5.60115999673816e-32 1.9859076773692924e-31 -4.29168462391157e-42 6.779844248914173 -6.619008062947423e-16 6.774426645770778e-31 -1.0913633373547368e-15 14.400596767614449" Properties=species:S:1:pos:R:3 unique_starting_index=54 config_type=initial n_minim_iter=32 pbc="T T T"
Si       0.62987570       0.78024678       1.98654232
Si       1.89057879       5.99959747       1.98654232
Si       0.63035154       4.17016890       9.18684070
Si       1.89010295       2.60967535       9.18684070
Si       0.62976414       5.99818569       0.41947338
Si       1.89069036       0.78165856       0.41947338
Si       0.63046311       2.60826357       7.61977177
Si       1.88999138       4.17158068       7.61977177
8
Lattice="2.5171305017635484 -5.598396576042296e-32 -1.371375188995378e-29 -2.3195522290566804e-42 6.7764993058452685 -2.0949273574336047e-15 -4.676865623055301e-29 -3.299961421920849e-15 14.378739461893465" Properties=species:S:1:pos:R:3 unique_starting_index=54 config_type=initial n_minim_iter=33 pbc="T T T"
Si       0.62907022       0.78007062       1.98318216
Si       1.88806028       5.99642868       1.98318216
Si       0.62949503       4.16832027       9.17255189
Si       1.88763547       2.60817903       9.17255189
Si       0.62896328       5.99517274       0.41918168
Si       1.88816722       0.78132657       0.41918168
Si       0.62960197       2.60692308       7.60855141
Si       1.88752853       4.16957622       7.60855141
8
Lattice="2.516687963268794 -5.598860039444369e-32 9.422590305563435e-28 -2.1113715199748282e-42 6.777060298574327 -4.258227669310971e-15 3.213454979399212e-27 -6.637144388048787e-15 14.372931858096782" Properties=species:S:1:pos:R:3 unique_starting_index=54 config_type=initial n_minim_iter=34 pbc="T T T"
Si       0.62898584       0.78046430       1.98246556
Si       1.88770212       5.99659600       1.98246556
Si       0.62935814       4.16899445       9.16893149
Si       1.88732982       2.60806585       9.16893149
Si       0.62888404       5.99549607       0.41892796
Si       1.88780393       0.78156423       0.41892796
Si       0.62945994       2.60696592       7.60539389
Si       1.88722802       4.17009438       7.60539389
8
Lattice="2.516196435998338 -5.598309619895772e-32 -6.459910444850111e-26 -7.234535751849461e-41 6.776394041313343 -2.1313735901815436e-15 -2.2030441326028013e-25 -3.3618533143695063e-15 14.368155879008118" Properties=species:S:1:pos:R:3 unique_starting_index=54 config_type=initial n_minim_iter=35 pbc="T T T"
Si       0.62889899       0.78083785       1.98204781
Si       1.88729745       5.99555619       1.98204781
Si       0.62919923       4.16903487       9.16612575
Si       1.88699721       2.60735917       9.16612575
Si       0.62880491       5.99466591       0.41854775
Si       1.88739152       0.78172813       0.41854775
Si       0.62929331       2.60646889       7.60262569
Si       1.88690313       4.16992515       7.60262569
8
Lattice="2.51541198944285 -5.596123066617141e-32 4.420185190979087e-24 3.086127188095376e-40 6.773747477097643 -3.7456290062868086e-16 1.507412667111315e-23 -6.543309781158668e-16 14.362994811405827" Properties=species:S:1:pos:R:3 unique_starting_index=54 config_type=initial n_minim_iter=36 pbc="T T T"
Si       0.62874916       0.78115450       1.98177906
Si       1.88666283       5.99259297       1.98177906
Si       0.62895683       4.16802824       9.16327646
Si       1.88645516       2.60571923       9.16327646
Si       0.62866663       5.99196725       0.41795420
Si       1.88674536       0.78178022       0.41795420
Si       0.62903937       2.60509352       7.59945161
Si       1.88637262       4.16865396       7.59945161
8
Lattice="2.5115112261682855 -5.58413377528735e-32 -3.003815392899786e-22 1.3327562398936165e-37 6.75923553833134 -2.170287150728956e-15 -1.0244838644807271e-21 -3.4220414740720547e-15 14.329956879114436" Properties=species:S:1:pos:R:3 unique_starting_index=54 config_type=initial n_minim_iter=37 pbc="T T T"
Si       0.62797236       0.78289592       1.97987343
Si       1.88353887       5.97633962       1.97987343
Si       0.62778326       4.16251369       9.14485187
Si       1.88372797       2.59672185       9.14485187
Si       0.62795295       5.97682917       0.41433994
Si       1.88355828       0.78240637       0.41433994
Si       0.62780266       2.59721140       7.57931838
Si       1.88370856       4.16202414       7.57931838
8
Lattice="2.506906282065846 -5.563639030945684e-32 2.008301045001173e-20 9.778119552248444e-36 6.735474954433119 1.2664100313609786e-16 6.850557069367151e-20 1.1750703592381716e-16 14.276657233928612" Properties=species:S:1:pos:R:3 unique_starting_index=54 config_type=initial n_minim_iter=38 pbc="T T T"
Si       0.62667399       0.78179809       1.97510387
Si       1.88023229       5.95367686       1.97510387
Si       0.62677915       4.14953557       9.11343249
Si       1.88012713       2.58593938       9.11343249
Si       0.62666908       5.95326538       0.41020432
Si       1.88023720       0.78220958       0.41020432
Si       0.62678406       2.58552790       7.54853293
Si       1.88012222       4.14994705       7.54853293
8
Lattice="2.510042866506289 -5.520806279791215e-32 -1.3283203480723967e-18 9.875672067850415e-34 6.742324801905018 -1.1721185959660159e-15 -4.53036069170023e-18 -1.883992767462334e-15 14.283954788691663" Properties=species:S:1:pos:R:3 unique_starting_index=54 config_type=initial n_minim_iter=39 pbc="T T T"
Si       0.62746423       0.78293946       1.97657603
Si       1.88257864       5.95938535       1.97657603
Si       0.62755720       4.15410186       9.11855343
Si       1.88248566       2.58822294       9.11855343
Si       0.62745953       5.95902648       0.40995142
Si       1.88258333       0.78329832       0.40995142
Si       0.62756190       2.58786408       7.55192881
Si       1.88248097       4.15446072       7.55192881
8
Lattice="2.5095492820007155 -3.5053967388195085e-32 8.771929647000374e-17 -7.093884297319891e-33 6.741331801375205 -1.8547020986599864e-15 2.991537732091394e-16 -2.936852620562859e-15 14.278451308162781" Properties=species:S:1:pos:R:3 unique_starting_index=54 config_type=initial n_minim_iter=40 pbc="T T T"
Si       0.62734528       0.78293701       1.97591907
Si       1.88220401       5.95839479       1.97591907
Si       0.62742936       4.15360291       9.11514473
Si       1.88211992       2.58772889       9.11514473
Si       0.62734076       5.95807308       0.40968887
Si       1.88220852       0.78325872       0.40968887
Si       0.62743388       2.58740718       7.54891452
Si       1.88211540       4.15392462       7.54891452
8
Lattice="2.509459544782192 -2.8371624494076086e-30 -5.781382623299805e-15 -3.276529834854353e-31 6.740804584846769 -3.0844085802119806e-15 -1.9716625925848727e-14 -4.833054439885999e-15 14.274981355802753" Properties=species:S:1:pos:R:3 unique_starting_index=54 config_type=initial n_minim_iter=41 pbc="T T T"
Si       0.62732716       0.78300689       1.97561217
Si       1.88213238       5.95779769       1.97561217
Si       0.62740261       4.15340919       9.11310285
Si       1.88205693       2.58739540       9.11310285
Si       0.62732284       5.95751165       0.40941602
Si       1.88213670       0.78329294       0.40941602
Si       0.62740693       2.58710936       7.54690670
Si       1.88205261       4.15369523       7.54690670
8
Lattice="2.5092970053480546 -5.610333113165844e-30 -6.3094316921711e-15 -3.345323257877923e-30 6.739535256193346 -1.7256146811106323e-15 -2.1528174091438216e-14 -2.7406584401544275e-15 14.268465038975398" Properties=species:S:1:pos:R:3 unique_starting_index=54 config_type=initial n_minim_iter=42 pbc="T T T"
Si       0.62729438       0.78311272       1.97507650
Si       1.88200262       5.95642253       1.97507650
Si       0.62735412       4.15288035       9.10930902
Si       1.88194289       2.58665491       9.10930902
Si       0.62729045       5.95620058       0.40886296
Si       1.88200656       0.78333468       0.40886296
Si       0.62735806       2.58643295       7.54309548
Si       1.88193895       4.15310231       7.54309548
8
Lattice="2.508988598001928 -7.992181510233481e-30 -6.885981576308758e-15 -7.092360943906483e-30 6.736819010112139 -1.1573633271357594e-15 -2.351547687881408e-14 -1.866479848685399e-15 14.256654193792922" Properties=species:S:1:pos:R:3 unique_starting_index=54 config_type=initial n_minim_iter=43 pbc="T T T"
Si       0.62722904       0.78324123       1.97415270
Si       1.88175956       5.95357778       1.97415270
Si       0.62726526       4.15165073       9.10247979
Si       1.88172334       2.58516828       9.10247979
Si       0.62722579       5.95344930       0.40781344
Si       1.88176281       0.78336971       0.40781344
Si       0.62726851       2.58503980       7.53614054
Si       1.88172009       4.15177921       7.53614054
8
Lattice="2.5085017868150574 -6.869672871559138e-30 -7.515440959832996e-15 -2.0517723882590213e-30 6.732453812419999 -1.1369600245035603e-16 -2.5706832327934055e-14 -2.596632063861741e-16 14.234358282669328" Properties=species:S:1:pos:R:3 unique_starting_index=54 config_type=initial n_minim_iter=44 pbc="T T T"
Si       0.62712031       0.78347577       1.97235254
Si       1.88138148       5.94897804       1.97235254
Si       0.62713059       4.14970268       9.08953168
Si       1.88137120       2.58275113       9.08953168
Si       0.62711813       5.94894690       0.40588845
Si       1.88138366       0.78350692       0.40588845
Si       0.62713277       2.58271999       7.52306759
Si       1.88136902       4.14973382       7.52306759
8
Lattice="2.5083909263828206 -7.036715601988074e-30 -8.199683128374253e-15 6.139401980425807e-31 6.73135525574217 1.1061348044690704e-15 -2.8050762011101854e-14 1.6202505846105715e-15 14.229535273542968" Properties=species:S:1:pos:R:3 unique_starting_index=54 config_type=initial n_minim_iter=45 pbc="T T T"
Si       0.62709344       0.78348504       1.97197994
Si       1.88129748       5.94787022       1.97197994
Si       0.62710202       4.14916266       9.08674758
Si       1.88128891       2.58219259       9.08674758
Si       0.62709142       5.94784420       0.40545523
Si       1.88129950       0.78351105       0.40545523
Si       0.62710404       2.58216658       7.52022287
Si       1.88128689       4.14918868       7.52022287
8
Lattice="2.5083691192106667 -7.866599790044906e-30 -8.945485710757528e-15 -9.94598833840812e-31 6.731119183085482 1.265536725886755e-15 -3.0597316003605846e-14 1.866006039486643e-15 14.228250841888316" Properties=species:S:1:pos:R:3 unique_starting_index=54 config_type=initial n_minim_iter=46 pbc="T T T"
Si       0.62708817       0.78349312       1.97187733
Si       1.88128094       5.94762606       1.97187733
Si       0.62709639       4.14905271       9.08600275
Si       1.88127273       2.58206647       9.08600275
Si       0.62708619       5.94760114       0.40534324
Si       1.88128293       0.78351804       0.40534324
Si       0.62709837       2.58204155       7.51946866
Si       1.88127075       4.14907763       7.51946866
8
Lattice="2.50526650706133 -3.666964915857866e-30 -9.774219156058909e-15 6.467237997549155e-30 6.698345083681978 8.280931137666341e-16 -3.390261458382152e-14 1.2180774077235647e-15 14.049538842034991" Properties=species:S:1:pos:R:3 unique_starting_index=54 config_type=initial n_minim_iter=47 pbc="T T T"
Si       0.62633704       0.78458181       1.95748231
Si       1.87892946       5.91376327       1.95748231
Si       0.62629621       4.13375435       8.98225173
Si       1.87897030       2.56459073       8.98225173
Si       0.62634031       5.91388430       0.38987951
Si       1.87892620       0.78446079       0.38987951
Si       0.62629295       2.56471176       7.41464893
Si       1.87897356       4.13363333       7.41464893
8
Lattice="2.5021734241501075 -2.9414497645441405e-30 -1.0664307524375114e-14 8.301539551445645e-30 6.66971104820159 9.703776460801533e-16 -3.7674476977367935e-14 1.4543820314164534e-15 13.804731287071906" Properties=species:S:1:pos:R:3 unique_starting_index=54 config_type=initial n_minim_iter=48 pbc="T T T"
Si       0.62545131       0.78296645       1.93552374
Si       1.87672211       5.88674460       1.93552374
Si       0.62563540       4.11782197       8.83788938
Si       1.87653802       2.55188908       8.83788938
Si       0.62544574       5.88617229       0.37093625
Si       1.87672769       0.78353876       0.37093625
Si       0.62564098       2.55131677       7.27330189
Si       1.87653245       4.11839428       7.27330189
8
Lattice="2.5023376049567654 -1.9544141954337026e-30 -1.1587464964497064e-14 9.150179676794339e-30 6.670021094099809 6.53868148988694e-16 -4.082460270760371e-14 9.666344653014625e-16 13.805120041024182" Properties=species:S:1:pos:R:3 unique_starting_index=54 config_type=initial n_minim_iter=49 pbc="T T T"
Si       0.62549276       0.78301401       1.93560652
Si       1.87684485       5.88700709       1.93560652
Si       0.62567604       4.11802455       8.83816654
Si       1.87666156       2.55199654       8.83816654
Si       0.62548719       5.88643741       0.37091842
Si       1.87685042       0.78358369       0.37091842
Si       0.62568161       2.55142686       7.27347844
Si       1.87665599       4.11859423       7.27347844
8
Lattice="2.505799139590276 -1.3964137994262902e-30 -1.2568028601672785e-14 1.1462007117792065e-29 6.6765622856476865 9.72902759498492e-16 -4.421321164457319e-14 1.4586691757773047e-15 13.81303544634251" Properties=species:S:1:pos:R:3 unique_starting_index=54 config_type=initial n_minim_iter=50 pbc="T T T"
Si       0.62636691       0.78402010       1.93732406
Si       1.87943222       5.89254218       1.93732406
Si       0.62653266       4.12230125       8.84384178
Si       1.87926648       2.55426104       8.84384178
Si       0.62636148       5.89203013       0.37052336
Si       1.87943766       0.78453215       0.37052336
Si       0.62653809       2.55374899       7.27704109
Si       1.87926105       4.12281329       7.27704109
