22
Lattice="5.232401100067496 -0.9260231399611093 0.7670606693797433 1.59053950736243 5.070080964224649 1.1848555760620065 2.6985048895693287 1.6729637159150024 17.581158319119243" Properties=species:S:1:pos:R:3 unique_starting_index=40 config_type=initial n_minim_iter=1 energy=-3601.1219670158976 free_energy=-3601.1219670158976 pbc="T T T"
Si       8.55917541       1.81577934      16.02175000
Si       2.90292901       1.03503655       5.24911782
Si       5.38418733       1.16486042       8.21123319
Si       5.23427437       3.28261811      15.63306625
Si       5.04370570       2.60393705      17.51944104
Si       4.97975370       6.18482857       9.69288022
Si       5.33184807       1.37420669       3.03983965
Si       5.27929882       3.51562230      11.95265158
Si       3.77913750       1.58938416       1.19631477
Si       5.83242524       4.44201072      17.27565956
Si       4.50031913       1.67417090      12.10708529
Si       4.66071740       2.82169335      13.74898835
Si       1.89047350       2.32336184       1.34837533
Si       1.34435368       1.21100051       8.79059649
Si       4.63817203       1.38030806      15.94437155
Si       6.18351542       4.87211408      10.67084735
Si       3.00424439       3.00309372       5.65371623
Si       3.71575308       6.82193607       8.18502709
Si       4.56250727       2.06388673       4.76878506
Si       5.07794842       1.63101099      10.16202306
Si       6.87323052       2.80025387      16.71003672
Si       4.12874857       1.69436816       6.70530723
22
Lattice="5.234038069971545 -0.9255396866821107 0.7659311610766691 1.5912601380808813 5.069579065048589 1.1841791095515326 2.6960412870634456 1.6723207095503068 17.578111916638846" Properties=species:S:1:pos:R:3 unique_starting_index=40 config_type=initial n_minim_iter=2 stress="0.002883028798702675 0.0005138839659718714 -0.0014913569720761465 0.0005138839659718714 8.985900650199219e-05 -0.0001728468521664817 -0.0014913569720761465 -0.0001728468521664817 0.00042355549357476547" pbc="T T T"
Si       8.55947390       1.81562361      16.01782483
Si       2.90285855       1.03507579       5.24778507
Si       5.38440048       1.16481588       8.20897285
Si       5.23306070       3.28202397      15.62955104
Si       5.04180642       2.60336633      17.51616012
Si       4.98033909       6.18414584       9.69034698
Si       5.33333546       1.37442496       3.03821105
Si       5.27902650       3.51523204      11.94970336
Si       3.78023863       1.58957932       1.19525710
Si       5.83137182       4.44150236      17.27199257
Si       4.49954243       1.67379025      12.10453197
Si       4.65986010       2.82121381      13.74624445
Si       1.89112982       2.32307644       1.34767998
Si       1.34316166       1.21043953       8.78916169
Si       4.63655279       1.38011189      15.94105527
Si       6.18385786       4.87151952      10.66773435
Si       3.00446053       3.00277067       5.65208061
Si       3.71592563       6.82110370       8.18293573
Si       4.56333292       2.06387038       4.76714041
Si       5.07786768       1.63093950      10.15947787
Si       6.87293087       2.79961491      16.70611027
Si       4.12884641       1.69414474       6.70353232
22
Lattice="5.2333249509098 -0.9255567257280357 0.766169209152623 1.5910110487320115 5.069128816796158 1.1841110761965705 2.6967686448931816 1.6721133659798124 17.575810230484528" Properties=species:S:1:pos:R:3 unique_starting_index=40 config_type=initial n_minim_iter=3 stress="-0.0003000080809705245 0.000438496500361413 -0.0011307868299887545 0.000438496500361413 -0.0019412144882944354 8.357766346121052e-06 -0.0011307868299887545 8.357766346121052e-06 -0.0021322450308187543" pbc="T T T"
Si       8.55951374       1.81532311      16.01619843
Si       2.90265811       1.03505773       5.24724102
Si       5.38400358       1.16458564       8.20818177
Si       5.23311934       3.28161540      15.62757540
Si       5.04192942       2.60305968      17.51421193
Si       4.98038022       6.18354589       9.68933769
Si       5.33283176       1.37428409       3.03805051
Si       5.27894858       3.51486024      11.94828664
Si       3.77961896       1.58948441       1.19529328
Si       5.83157187       4.44116880      17.26998204
Si       4.49959244       1.67349563      12.10319867
Si       4.66005217       2.82088223      13.74478996
Si       1.89093714       2.32274865       1.34759917
Si       1.34353758       1.21012738       8.78809377
Si       4.63676939       1.38004101      15.93901608
Si       6.18349822       4.87088707      10.66645597
Si       3.00438236       3.00246246       5.65136116
Si       3.71576331       6.82043585       8.18207513
Si       4.56290599       2.06363838       4.76678961
Si       5.07778857       1.63079262      10.15834029
Si       6.87323270       2.79904531      16.70413380
Si       4.12849479       1.69383710       6.70290746
22
Lattice="5.233414802439542 -0.9260452009719836 0.7671923988871894 1.5908775658490575 5.069930878043623 1.184527990667087 2.699627967442723 1.672109444877591 17.57900342074943" Properties=species:S:1:pos:R:3 unique_starting_index=40 config_type=initial n_minim_iter=4 stress="0.0008543545746601813 0.00016312764364475595 0.00012248352143648375 0.00016312764364475595 0.001006612556612079 -0.00022229292203842713 0.00012248352143648375 -0.00022229292203842713 0.0005323093620166587" pbc="T T T"
Si       8.56228076       1.81505913      16.02022729
Si       2.90331071       1.03516778       5.24853616
Si       5.38512991       1.16436510       8.21038249
Si       5.23538961       3.28176206      15.63078468
Si       5.04443182       2.60310912      17.51798816
Si       4.98186000       6.18429678       9.69170625
Si       5.33331598       1.37427291       3.03932041
Si       5.28066127       3.51510773      11.95093300
Si       3.77954458       1.58965101       1.19608763
Si       5.83416007       4.44166301      17.27367007
Si       4.50141844       1.67334261      12.10594127
Si       4.66219448       2.82099750      13.74790756
Si       1.89103828       2.32292620       1.34811423
Si       1.34496738       1.20996703       8.78979630
Si       4.63921104       1.38000622      15.94218218
Si       6.18485680       4.87115431      10.66892987
Si       3.00516955       3.00279249       5.65258440
Si       3.71663939       6.82133686       8.18400662
Si       4.56348405       2.06372669       4.76832252
Si       5.07938133       1.63081173      10.16074356
Si       6.87606780       2.79876188      16.70782814
Si       4.12928706       1.69373365       6.70471069
22
Lattice="5.2335784649001456 -0.9265983745794334 0.7670747140270853 1.5900146893315485 5.0686921715266555 1.1854198134891152 2.6987436251666077 1.6735679224156295 17.583468498941524" Properties=species:S:1:pos:R:3 unique_starting_index=40 config_type=initial n_minim_iter=5 stress="0.0006762182873814268 -0.0008622476221553994 -0.00019870941039850127 -0.0008622476221553994 -0.0013234422855946167 0.0005070424401668843 -0.00019870941039850127 0.0005070424401668843 0.002322933666613482" pbc="T T T"
Si       8.56161873       1.81559274      16.02430223
Si       2.90263041       1.03543918       5.24979366
Si       5.38482451       1.16407793       8.21248906
Si       5.23460841       3.28233188      15.63510260
Si       5.04332165       2.60419688      17.52256959
Si       4.98091846       6.18342277       9.69492075
Si       5.33328851       1.37371522       3.03984411
Si       5.27954212       3.51487582      11.95398220
Si       3.77899172       1.58911810       1.19633487
Si       5.83293335       4.44201070      17.27826653
Si       4.50066230       1.67379388      12.10924822
Si       4.66150709       2.82134948      13.75163411
Si       1.89077817       2.32207441       1.34873043
Si       1.34433484       1.21018052       8.79213480
Si       4.63833169       1.38102412      15.94600568
Si       6.18365701       4.87014593      10.67152748
Si       3.00462039       3.00242955       5.65394081
Si       3.71511852       6.82020150       8.18699214
Si       4.56299007       2.06320093       4.76963603
Si       5.07887450       1.63108849      10.16318238
Si       6.87496103       2.79882841      16.71205369
Si       4.12841756       1.69333097       6.70651788
22
Lattice="5.23367398623748 -0.9266605322808844 0.7666663680211883 1.5901674833059758 5.070144862446355 1.1852877520797294 2.698255804032938 1.6748302814445801 17.579161187687713" Properties=species:S:1:pos:R:3 unique_starting_index=40 config_type=initial n_minim_iter=6 stress="-0.0002708823883101873 0.0006536262253938719 -0.0005872508094651594 0.0006536262253938719 0.0010422095744187436 0.0011452960169410728 -0.0005872508094651594 0.0011452960169410728 0.000485534208539958" pbc="T T T"
Si       8.56160706       1.81771875      16.02058634
Si       2.90167886       1.03670865       5.24830787
Si       5.38513491       1.16441050       8.21063936
Si       5.23509983       3.28442879      15.63182513
Si       5.04276422       2.60627602      17.51833513
Si       4.98170355       6.18582832       9.69312173
Si       5.33397918       1.37496272       3.03853024
Si       5.27906179       3.51630593      11.95063789
Si       3.77847198       1.59037918       1.19573374
Si       5.83285447       4.44418408      17.27385686
Si       4.50016255       1.67472560      12.10684778
Si       4.66182745       2.82272370      13.74852640
Si       1.89122934       2.32233716       1.34857080
Si       1.34377655       1.20988717       8.79006712
Si       4.63771996       1.38221434      15.94176821
Si       6.18348097       4.87137154      10.66786321
Si       3.00490603       3.00374157       5.65182711
Si       3.71482207       6.82231758       8.18568789
Si       4.56301933       2.06423259       4.76844615
Si       5.07890942       1.63242738      10.16034860
Si       6.87423894       2.79970196      16.70785802
Si       4.12745858       1.69366094       6.70497247
22
Lattice="5.234463202626064 -0.9272616943744073 0.7671659158364647 1.5899552844697407 5.069416582523994 1.1842906167900769 2.6998019058645943 1.6710479044688882 17.576963470540218" Properties=species:S:1:pos:R:3 unique_starting_index=40 config_type=initial n_minim_iter=7 stress="0.0006156609947417773 -0.0001863586404354397 0.00019967276593670698 -0.0001863586404354397 0.00012683188290990013 -0.000275780103098341 0.00019967276593670698 -0.000275780103098341 -0.00018773167889302666" pbc="T T T"
Si       8.56381802       1.81391124      16.01913099
Si       2.90205198       1.03556429       5.24765247
Si       5.38643619       1.16209921       8.20988547
Si       5.23685857       3.28078217      15.62989772
Si       5.04441978       2.60231684      17.51611534
Si       4.98262225       6.18312980       9.69133314
Si       5.33489076       1.37396992       3.03822321
Si       5.28018797       3.51316939      11.94883598
Si       3.77874108       1.58985092       1.19558717
Si       5.83456379       4.44001421      17.27126102
Si       4.50142261       1.67178077      12.10563124
Si       4.66339570       2.81938084      13.74681309
Si       1.89146113       2.32160247       1.34816946
Si       1.34443613       1.20761554       8.78893932
Si       4.63935985       1.37862494      15.93991815
Si       6.18459586       4.86816829      10.66585038
Si       3.00551378       3.00219507       5.65059390
Si       3.71517398       6.81986539       8.18383723
Si       4.56374784       2.06273761       4.76783960
Si       5.08020595       1.62987509      10.15914744
Si       6.87596612       2.79536849      16.70591326
Si       4.12807984       1.69168009       6.70421766
22
Lattice="5.23343463160301 -0.9269477057817337 0.766501789797672 1.5898216818796072 5.068886890458465 1.1834792422837352 2.696591111439156 1.6687644301646964 17.577953218580912" Properties=species:S:1:pos:R:3 unique_starting_index=40 config_type=initial n_minim_iter=8 stress="-0.0011927799010069472 0.0008662915267020285 -0.000499016652348062 0.0008662915267020285 -0.0003991070866731685 -0.001180619978355758 -0.000499016652348062 -0.001180619978355758 0.0010802706315854956" pbc="T T T"
Si       8.56055418       1.81312502      16.01953662
Si       2.89967669       1.03570115       5.24711319
Si       5.38460004       1.16100594       8.20922086
Si       5.23413292       3.27906585      15.63038318
Si       5.04038871       2.59999057      17.51608973
Si       4.98059078       6.18199691       9.69132891
Si       5.33396778       1.37467275       3.03729732
Si       5.27721290       3.51145918      11.94824233
Si       3.77802884       1.59034891       1.19533750
Si       5.83145174       4.43799657      17.27044987
Si       4.49847987       1.66991568      12.10626100
Si       4.66135635       2.81760098      13.74747163
Si       1.89154077       2.32108726       1.34808903
Si       1.34263039       1.20510423       8.78950012
Si       4.63592350       1.37733245      15.94024390
Si       6.18236921       4.86617691      10.66440795
Si       3.00461550       3.00145293       5.64973705
Si       3.71365579       6.81832965       8.18352207
Si       4.56231268       2.06208059       4.76726853
Si       5.07782905       1.62835762      10.15889720
Si       6.87170207       2.79257994      16.70633648
Si       4.12589175       1.69040685       6.70416368
22
Lattice="5.234863426424435 -0.9280050949446512 0.7660176336546851 1.5889607520674487 5.0690714741790055 1.184800532466161 2.6971270273199623 1.6740901209145593 17.572350267162122" Properties=species:S:1:pos:R:3 unique_starting_index=40 config_type=initial n_minim_iter=9 stress="-8.122091699938751e-05 0.00017509385565302318 0.00031505386920859673 0.00017509385565302318 -0.0005396451247219479 0.0003029770832695265 0.00031505386920859673 0.0003029770832695265 -0.0004742876447777896" pbc="T T T"
Si       8.56289440       1.81749194      16.01509666
Si       2.89912340       1.03747601       5.24519537
Si       5.38591920       1.16226022       8.20641953
Si       5.23520750       3.28349329      15.62625012
Si       5.04072022       2.60466594      17.51042506
Si       4.98027039       6.18467226       9.69076334
Si       5.33518443       1.37533607       3.03668171
Si       5.27736802       3.51412386      11.94497222
Si       3.77852175       1.59045302       1.19591575
Si       5.83240495       4.44275235      17.26513071
Si       4.49902435       1.67257772      12.10297322
Si       4.66275045       2.82120329      13.74410238
Si       1.89187296       2.32097033       1.34885872
Si       1.34261050       1.20651417       8.78685867
Si       4.63687862       1.38218015      15.93494438
Si       6.18301920       4.86793612      10.66168832
Si       3.00495084       3.00281550       5.64843993
Si       3.71303980       6.82038627       8.18336000
Si       4.56283778       2.06242750       4.76641534
Si       5.07873079       1.63014484      10.15584214
Si       6.87244835       2.79584452      16.70190225
Si       4.12611804       1.69126184       6.70260002
22
Lattice="5.234060090316073 -0.9304068775387322 0.7641192167952833 1.586185650726714 5.069959487123928 1.184329179937263 2.690216121405417 1.6743911049702134 17.56827898685153" Properties=species:S:1:pos:R:3 unique_starting_index=40 config_type=initial n_minim_iter=10 stress="-0.001273189303965125 -0.0011690456571262834 -0.000902818786215616 -0.0011690456571262834 0.00048783255527304255 -0.00020596168093896377 -0.000902818786215616 -0.00020596168093896377 -0.0009024157985143024" pbc="T T T"
Si       8.55572302       1.81680710      16.00985382
Si       2.89527860       1.03759430       5.24271656
Si       5.38190175       1.16056392       8.20276317
Si       5.22822955       3.28389200      15.62152019
Si       5.03253928       2.60449924      17.50597220
Si       4.97344749       6.18544088       9.68858872
Si       5.33291065       1.37485555       3.03440250
Si       5.27054078       3.51330746      11.94084888
Si       3.77653291       1.59003734       1.19463505
Si       5.82444268       4.44242267      17.25935261
Si       4.49325438       1.67143367      12.09966632
Si       4.65712804       2.82070986      13.74048274
Si       1.89071917       2.32070068       1.34860337
Si       1.33868489       1.20534682       8.78475460
Si       4.63041258       1.38187989      15.93024457
Si       6.17676125       4.86686073      10.65732149
Si       3.00165495       3.00287661       5.64641046
Si       3.70707924       6.82135391       8.18117701
Si       4.55936836       2.06095262       4.76423820
Si       5.07366378       1.62810826      10.15234093
Si       6.86452857       2.79375335      16.69737508
Si       4.12211518       1.68994017       6.69999683
22
Lattice="5.2343555394863515 -0.9290726517577438 0.7647261134366933 1.5874005305161725 5.06947021728097 1.1858203626875947 2.6937432046225833 1.67906963602621 17.567727064668638" Properties=species:S:1:pos:R:3 unique_starting_index=40 config_type=initial n_minim_iter=11 stress="-0.0011061329061928054 6.11378962931262e-05 0.00034352020392904535 6.11378962931262e-05 -0.0008187277867655048 4.1673720784265104e-05 0.00034352020392904535 4.1673720784265104e-05 -0.0007955160308597544" pbc="T T T"
Si       8.55984340       1.82473870      16.01125559
Si       2.89419414       1.04047809       5.24183751
Si       5.38405641       1.16296763       8.20270711
Si       5.23287113       3.28984145      15.62144477
Si       5.03540455       2.61002210      17.50695658
Si       4.97629403       6.18843806       9.69205518
Si       5.33445528       1.37854779       3.03540586
Si       5.27259608       3.51604856      11.94101897
Si       3.77682731       1.59185424       1.19570210
Si       5.82977360       4.44653841      17.25846173
Si       4.49537420       1.67428840      12.10042144
Si       4.66177035       2.82413339      13.74120450
Si       1.89253087       2.32044688       1.35034879
Si       1.33991260       1.20507700       8.78426761
Si       4.63393000       1.38734930      15.92942242
Si       6.18041014       4.86874570      10.65775259
Si       3.00403646       3.00440683       5.64714129
Si       3.71030932       6.82291048       8.18312014
Si       4.56040693       2.06172233       4.76528788
Si       5.07565388       1.62931670      10.15281653
Si       6.86844083       2.79703733      16.69934945
Si       4.12327848       1.69133806       6.70029136
22
Lattice="5.234981617791979 -0.9305663848845795 0.7629745349382384 1.5857444817023636 5.070119557086295 1.1866201718581704 2.6891170382874963 1.6836023898792936 17.563554158673576" Properties=species:S:1:pos:R:3 unique_starting_index=40 config_type=initial n_minim_iter=12 stress="-0.000942384394739603 -0.00026190514651286146 0.0003336775611751753 -0.00026190514651286146 -0.0004839068277400792 1.0103384769841397e-05 0.0003336775611751753 1.0103384769841397e-05 -0.0008353181542695215" pbc="T T T"
Si       8.55778424       1.83046078      16.00650887
Si       2.88968892       1.04273362       5.23887347
Si       5.38175823       1.16335140       8.20007178
Si       5.23083692       3.29510321      15.61779633
Si       5.02993446       2.61561960      17.50341816
Si       4.97369660       6.19205883       9.69284883
Si       5.33456655       1.38173898       3.03351979
Si       5.26761450       3.51776441      11.93668168
Si       3.77650411       1.59194410       1.19533436
Si       5.82671505       4.45111729      17.25114884
Si       4.49157255       1.67582484      12.09784522
Si       4.65895611       2.82518585      13.73712583
Si       1.89241327       2.32043233       1.35238895
Si       1.33664654       1.20436335       8.78066832
Si       4.63032252       1.39391155      15.92374227
Si       6.17644518       4.86802424      10.65431394
Si       3.00284891       3.00685867       5.64661609
Si       3.70647700       6.82579115       8.18222111
Si       4.55820708       2.06045745       4.76344605
Si       5.07212667       1.62716336      10.15041812
Si       6.86410921       2.79781269      16.69753401
Si       4.12071296       1.69058209       6.69718390
22
Lattice="5.235325803465594 -0.930199015083808 0.7610191765260204 1.5854933011342927 5.069120329670407 1.18724878966961 2.6833478619886244 1.686981811655371 17.56418251109915" Properties=species:S:1:pos:R:3 unique_starting_index=40 config_type=initial n_minim_iter=13 stress="-7.999992897573303e-05 -0.00023184389090872944 0.0001414203407336771 -0.00023184389090872944 -0.00031515780641443755 -1.8571756240870583e-05 0.0001414203407336771 -1.8571756240870583e-05 -0.00011277958026271066" pbc="T T T"
Si       8.55439202       1.83745077      16.00436850
Si       2.88540016       1.04517085       5.23775257
Si       5.37872456       1.16498023       8.19872537
Si       5.22866758       3.29885041      15.61758662
Si       5.02371434       2.62098206      17.50314599
Si       4.97165425       6.19402294       9.69438515
Si       5.33449242       1.38551655       3.03160650
Si       5.26272536       3.51887276      11.93508866
Si       3.77670563       1.59308224       1.19375789
Si       5.82429662       4.45470937      17.24961711
Si       4.48708143       1.67632449      12.09737584
Si       4.65490089       2.82534226      13.73807339
Si       1.89296298       2.32009635       1.35448051
Si       1.33416468       1.20312869       8.77986009
Si       4.62661434       1.39902357      15.92323155
Si       6.17233606       4.86584321      10.65321340
Si       3.00235968       3.00832478       5.64739158
Si       3.70361586       6.82640234       8.18297197
Si       4.55574152       2.05987704       4.76211372
Si       5.06800118       1.62490604      10.15092147
Si       6.85904347       2.79869989      16.69988671
Si       4.11774031       1.68931604       6.69647778
22
Lattice="5.234857919471817 -0.9295142269960804 0.7594125587610584 1.5857305472565213 5.069786217561307 1.1875087349210285 2.678131512352265 1.6894851058928597 17.56581077742942" Properties=species:S:1:pos:R:3 unique_starting_index=40 config_type=initial n_minim_iter=14 stress="0.0005629152888200616 -3.337968637102663e-05 1.3915250406283977e-05 -3.337968637102663e-05 0.00019937553412024386 -2.730829702334891e-05 1.3915250406283977e-05 -2.730829702334891e-05 0.000653383538255685" pbc="T T T"
Si       8.55106179       1.84425382      16.00365514
Si       2.88117146       1.04767501       5.23730236
Si       5.37663163       1.16628715       8.19950388
Si       5.22659602       3.30263181      15.61725244
Si       5.01728201       2.62657493      17.50328755
Si       4.96901467       6.19738436       9.69537738
Si       5.33368427       1.38991279       3.02971238
Si       5.25738290       3.51920363      11.93518090
Si       3.77733728       1.59502881       1.19253106
Si       5.82247648       4.45979119      17.24938064
Si       4.48298869       1.67729239      12.09776041
Si       4.65131666       2.82547913      13.73909476
Si       1.89372783       2.32052926       1.35640974
Si       1.33167764       1.20218171       8.77943421
Si       4.62288849       1.40331270      15.92406751
Si       6.16894138       4.86557168      10.65184280
Si       3.00226192       3.01051140       5.64837338
Si       3.70108134       6.82878608       8.18383861
Si       4.55264418       2.06043845       4.76127536
Si       5.06394768       1.62247838      10.15169456
Si       6.85472498       2.79977925      16.70296952
Si       4.11428781       1.68835034       6.69593007
22
Lattice="5.234887467986167 -0.9299049121603161 0.7561088007468725 1.5848376316784654 5.071511706780189 1.1880584332365356 2.6676526571764 1.694518855151811 17.566896980502957" Properties=species:S:1:pos:R:3 unique_starting_index=40 config_type=initial n_minim_iter=15 stress="0.002236580474298447 0.00024718385802100423 -0.00042908578039767617 0.00024718385802100423 0.0013333736176554447 -0.00010162225967015674 -0.00042908578039767617 -0.00010162225967015674 0.0017082193233298561" pbc="T T T"
Si       8.54586435       1.85490680      16.00192328
Si       2.87208865       1.05196753       5.23574655
Si       5.37069398       1.16820139       8.19947284
Si       5.22301321       3.30941699      15.61422537
Si       5.00543350       2.64049150      17.50085707
Si       4.96212826       6.20300445       9.69568851
Si       5.33180007       1.39744455       3.02544799
Si       5.24646971       3.51992283      11.93524550
Si       3.77873310       1.59790254       1.18943377
Si       5.81833750       4.46825226      17.24728527
Si       4.47424123       1.67651513      12.09774159
Si       4.64498983       2.82487061      13.73758259
Si       1.89520899       2.32089800       1.36016089
Si       1.32723325       1.19956756       8.77987240
Si       4.61485335       1.41258244      15.92363664
Si       6.16190308       4.86489618      10.64644480
Si       3.00130946       3.01468297       5.65009114
Si       3.69425080       6.83405573       8.18424474
Si       4.54596576       2.06082027       4.75935069
Si       5.05631615       1.61640650      10.15186483
Si       6.84566670       2.80174253      16.70703074
Si       4.10854565       1.68521172       6.69476943
22
Lattice="5.2333295383102065 -0.9321532691920642 0.7521347883436887 1.580945970877217 5.070707092007812 1.189403446426705 2.654185988921086 1.7013803437209989 17.565572007315208" Properties=species:S:1:pos:R:3 unique_starting_index=40 config_type=initial n_minim_iter=16 stress="0.00304270860315203 0.00025996946085500805 -0.0006431102084101344 0.00025996946085500805 0.0011729716604383508 8.03462977491166e-05 -0.0006431102084101344 8.03462977491166e-05 0.0020336376575104623" pbc="T T T"
Si       8.53469804       1.86545580      15.99827381
Si       2.85938454       1.05641516       5.23353437
Si       5.36207291       1.16801183       8.19809453
Si       5.21775563       3.31649725      15.60751936
Si       4.98759617       2.65656663      17.49588113
Si       4.94988663       6.20383252       9.69600369
Si       5.32703503       1.40368272       3.02076811
Si       5.23145644       3.51989866      11.93335469
Si       3.77869423       1.59793083       1.18700112
Si       5.80987728       4.47741914      17.24110294
Si       4.46172974       1.67347771      12.09597345
Si       4.63522203       2.82315761      13.73572850
Si       1.89427713       2.31969889       1.36598066
Si       1.31951403       1.19784723       8.77932929
Si       4.60419693       1.42242388      15.92185931
Si       6.14873648       4.86002322      10.63820918
Si       2.99711742       3.01651834       5.65269909
Si       3.68172966       6.83696599       8.18454918
Si       4.53624709       2.05867425       4.75666528
Si       5.04572464       1.61004112      10.15193671
Si       6.83276739       2.80426161      16.70762815
Si       4.10036640       1.68105800       6.69140825
22
Lattice="5.230335239974989 -0.9365770071942828 0.748082623568308 1.5750954923576586 5.073256405723186 1.1906814210496164 2.6394535233663112 1.708958761671124 17.562158101406308" Properties=species:S:1:pos:R:3 unique_starting_index=40 config_type=initial n_minim_iter=17 stress="0.0031022702909093286 0.0003626938747933054 -0.0007912597147175192 0.0003626938747933054 0.000985163557762906 0.0002363023661317867 -0.0007912597147175192 0.0002363023661317867 0.0018011533287449698" pbc="T T T"
Si       8.52310269       1.87756682      15.99406407
Si       2.84070516       1.06120070       5.22992919
Si       5.35117050       1.16741173       8.19478840
Si       5.21341944       3.32595352      15.59626550
Si       4.96637327       2.67673764      17.48769054
Si       4.93336499       6.20627453       9.69513616
Si       5.31922774       1.41250728       3.01610812
Si       5.21178374       3.51736015      11.92942625
Si       3.77645655       1.59965435       1.18238932
Si       5.80273258       4.48926591      17.23173021
Si       4.44782732       1.67111786      12.09387129
Si       4.62352537       2.81939038      13.73302936
Si       1.89306937       2.31934751       1.37504999
Si       1.31016621       1.19526620       8.77821755
Si       4.59261153       1.43585676      15.91882514
Si       6.13094784       4.85355779      10.62686474
Si       2.99124093       3.02069400       5.65612974
Si       3.66532133       6.84405718       8.18507210
Si       4.52423740       2.05612269       4.75223196
Si       5.03291824       1.60094812      10.15199302
Si       6.81721236       2.80808375      16.70728142
Si       4.09040108       1.67552889       6.68745152
22
Lattice="5.227699351504096 -0.9469275945472144 0.7445519231234403 1.5634635678944888 5.076596109231307 1.1947246036097547 2.624250669261226 1.7212973721072207 17.56798599872903" Properties=species:S:1:pos:R:3 unique_starting_index=40 config_type=initial n_minim_iter=18 stress="0.0026816150563557057 -6.231056560611677e-05 -0.0010585102548057526 -6.231056560611677e-05 -0.00046572073371750736 0.0004337419503870066 -0.0010585102548057526 0.0004337419503870066 0.0014990766497549064" pbc="T T T"
Si       8.51506392       1.89438624      16.00295925
Si       2.81336809       1.06988009       5.22912130
Si       5.33823424       1.16358228       8.19844017
Si       5.21448218       3.34010305      15.58990484
Si       4.94071837       2.70857618      17.48527124
Si       4.90825546       6.20533973       9.70118071
Si       5.30688445       1.42403860       3.01356833
Si       5.18691577       3.51309944      11.93013414
Si       3.77160316       1.60222504       1.17551568
Si       5.80253478       4.50784258      17.22909411
Si       4.43055685       1.66264123      12.10133054
Si       4.61027304       2.80970273      13.73898281
Si       1.89242001       2.31671039       1.39374732
Si       1.29661840       1.19234312       8.78175831
Si       4.58345776       1.45876409      15.92555230
Si       6.10570294       4.84179651      10.61946455
Si       2.98412093       3.02462214       5.66676253
Si       3.64175303       6.85247178       8.19519025
Si       4.50456862       2.04919243       4.75199123
Si       5.01767505       1.58029315      10.15749279
Si       6.80082331       2.81350140      16.71968578
Si       4.07477263       1.66512030       6.68488080
22
Lattice="5.223253352760689 -0.9579936042375998 0.7388359586707919 1.5504646872048997 5.083570683551737 1.2006228081812835 2.6038159654117043 1.7443707083336917 17.564446711724557" Properties=species:S:1:pos:R:3 unique_starting_index=40 config_type=initial n_minim_iter=19 stress="0.0011018928142210959 0.0008361577267317423 -0.0013041768408638338 0.0008361577267317423 0.0013111925480720976 -0.00015907443465082246 -0.0013041768408638338 -0.00015907443465082246 0.0015056353356139537" pbc="T T T"
Si       8.50293416       1.92772172      16.00734962
Si       2.77692147       1.08501736       5.22568560
Si       5.31693715       1.16502677       8.19440457
Si       5.21715432       3.36930871      15.57279985
Si       4.90715231       2.76202340      17.47081016
Si       4.87819910       6.20731910       9.70261803
Si       5.29049801       1.44205863       3.00753485
Si       5.15465935       3.51098847      11.92381860
Si       3.76587361       1.60796370       1.16755857
Si       5.80519786       4.54637480      17.21145257
Si       4.40859957       1.65847662      12.10212088
Si       4.59283665       2.80357624      13.73663882
Si       1.89190823       2.31235644       1.41938297
Si       1.27739409       1.19347958       8.78075061
Si       4.57191555       1.49334315      15.92335419
Si       6.07165373       4.83590298      10.60578329
Si       2.97575097       3.03334794       5.67677729
Si       3.61419575       6.86720515       8.20776656
Si       4.47828911       2.04550072       4.74953550
Si       4.99670387       1.55674980      10.15732247
Si       6.78090737       2.83101040      16.72360318
Si       4.05538081       1.65456582       6.68139072
22
Lattice="5.224176550018518 -0.9650080838598132 0.7383773182245582 1.5441558385758805 5.087623524886633 1.2033923815225214 2.6023528839023715 1.7529368302764687 17.562205309571716" Properties=species:S:1:pos:R:3 unique_starting_index=40 config_type=initial n_minim_iter=20 stress="-0.0003997638095573059 0.0002598338306455572 -0.0004001991875829466 0.0002598338306455572 0.000253833798084384 0.0006048989338790841 -0.0004001991875829466 0.0006048989338790841 0.0014593340912450732" pbc="T T T"
Si       8.51098127       1.94141875      16.01555161
Si       2.76204368       1.09130958       5.22684691
Si       5.31474537       1.16264483       8.19254891
Si       5.22530947       3.38158675      15.56352107
Si       4.90315702       2.79190479      17.46238367
Si       4.86551446       6.20250609       9.70355840
Si       5.28580261       1.44809629       3.00575310
Si       5.14677539       3.50590273      11.92102796
Si       3.76533932       1.61116892       1.16428001
Si       5.81824234       4.56192548      17.20131694
Si       4.40506969       1.65130708      12.10045201
Si       4.59084252       2.79874442      13.73813965
Si       1.89085202       2.30650998       1.43427697
Si       1.26936797       1.19520274       8.77962729
Si       4.57698403       1.50968566      15.92154517
Si       6.05894633       4.83053646      10.60280486
Si       2.97454648       3.03625546       5.68206652
Si       3.60346810       6.87191429       8.21577804
Si       4.46928131       2.04387371       4.74935971
Si       4.99220574       1.54244523      10.15912313
Si       6.78257378       2.83894995      16.72533077
Si       4.04980897       1.64771650       6.68007067
22
Lattice="5.2249164913004 -0.9652936351157434 0.7411985917207404 1.545368581213648 5.09033876441129 1.202402574818223 2.6120483537097803 1.7489971487303346 17.557957211582373" Properties=species:S:1:pos:R:3 unique_starting_index=40 config_type=initial n_minim_iter=21 stress="-0.0052801604345893 0.0001177359029983139 0.0013613779848859185 0.0001177359029983139 -0.0015844185687985748 0.000302022465574395 0.0013613779848859185 0.000302022465574395 -0.0033400663590846375" pbc="T T T"
Si       8.52092743       1.94006903      16.02076693
Si       2.76922667       1.08954181       5.23013145
Si       5.31719763       1.15907463       8.19104573
Si       5.23284235       3.38075110      15.56062712
Si       4.91618256       2.79019375      17.45536016
Si       4.86921321       6.19660560       9.70151224
Si       5.28692068       1.44346109       3.00708372
Si       5.15627681       3.50126997      11.91969065
Si       3.76746882       1.61623043       1.16456710
Si       5.83246354       4.56104865      17.19761242
Si       4.41272755       1.64870741      12.09693772
Si       4.59564244       2.79844817      13.73493516
Si       1.88869489       2.30123440       1.43538874
Si       1.27067175       1.19639763       8.78050744
Si       4.59046289       1.50830446      15.91765149
Si       6.06286973       4.83222063      10.60697275
Si       2.97663857       3.03451411       5.68143949
Si       3.60948558       6.87120357       8.21227097
Si       4.47295971       2.04642232       4.74910887
Si       4.99733049       1.54473191      10.15784251
Si       6.79380083       2.84062385      16.71744800
Si       4.05245266       1.64940599       6.67858980
