6
Lattice="4.037197598487159 0.20839067106173836 4.86731257779856e-15 -0.3241781645112703 6.107797087220224 5.102914615391719e-14 -5.8848779887658664e-15 -6.413989704848499e-14 7.753781243966105" Properties=species:S:1:pos:R:3 unique_starting_index=22 config_type=initial n_minim_iter=18 energy=-980.207093018021 free_energy=-980.207093018021 pbc="T T T"
Si       3.92922825       2.21419965       0.07332302
Si      -0.21620881       4.10198811       0.07332302
Si       1.80244693       4.20603978       5.00750348
Si       1.91057251       2.11014798       5.00750348
Si       0.84719684       3.10600682       6.41736970
Si       2.86582260       3.21018094       6.41736970
