8
Lattice="5.6923572211149605 0.0 0.0 0.0 5.871953910830291 -1.377379370686151e-16 0.0 1.3352515237694439e-16 5.6923572211149605" Properties=species:S:1:pos:R:3 unique_starting_index=2 config_type=initial n_minim_iter=1 energy=-1299.4171887230295 free_energy=-1299.4171887230295 pbc="T T T"
Si       2.98476211       1.94601858       3.84103798
Si       2.70766928       1.94601858       1.85281403
Si       3.84032767       3.92634757       2.70837959
Si       1.85210372       3.92634757       2.98547242
Si       5.55384789       3.92634757       0.99485937
Si       0.13858350       3.92634757       4.69899264
Si       4.69828233       1.94601858       5.55455820
Si       0.99414906       1.94601858       0.13929381
8
Lattice="5.69492043768547 0.0 0.0 0.0 5.867007232557456 -1.3770977820727658e-16 0.0 1.3349842320676207e-16 5.69492043768547" Properties=species:S:1:pos:R:3 unique_starting_index=2 config_type=initial n_minim_iter=2 stress="0.008767064234656544 -1.69206203804172e-17 7.217519796750372e-16 -1.69206203804172e-17 0.005218615133322919 -6.454633205460872e-17 7.217519796750372e-16 -6.454633205460872e-17 0.008767064234662258" pbc="T T T"
Si       2.98597441       1.94442826       3.84322938
Si       2.70902022       1.94442826       1.85318652
Si       3.84251875       3.92299087       2.70973085
Si       1.85247589       3.92299087       2.98668504
Si       5.55648044       3.92299087       0.99576916
Si       0.13851419       3.92299087       4.70064674
Si       4.69993610       1.94442826       5.55719107
Si       0.99505853       1.94442826       0.13922482
8
Lattice="5.677521980067265 0.0 0.0 0.0 5.809193232652616 -1.361901097621551e-16 0.0 1.3325143042070404e-16 5.677521980067265" Properties=species:S:1:pos:R:3 unique_starting_index=2 config_type=initial n_minim_iter=3 stress="-7.577881919625288e-05 -1.9565488629391816e-17 1.4533304243271722e-16 -1.9565488629391816e-17 -0.0020756006232841673 -3.105280202922413e-17 1.4533304243271722e-16 -3.105280202922413e-17 -7.5778819185097e-05" pbc="T T T"
Si       2.97503038       1.92582287       3.83485976
Si       2.70256557       1.92582287       1.84415312
Si       3.83415130       3.88377820       2.70327403
Si       1.84344466       3.88377820       2.97573884
Si       5.54132656       3.88377820       0.99609877
Si       0.13626939       3.88377820       4.68291411
Si       4.68220565       1.92582287       5.54203502
Si       0.99539031       1.92582287       0.13697785
8
Lattice="5.588610613284481 0.0 0.0 0.0 5.909816572418887 -1.3869787479629588e-16 0.0 1.310242844638116e-16 5.588610613284481" Properties=species:S:1:pos:R:3 unique_starting_index=2 config_type=initial n_minim_iter=4 stress="0.034362459414389104 7.217881902432167e-18 2.361600734952025e-16 7.217881902432167e-18 -0.0039716807043363314 2.1507972309526063e-17 2.361600734952025e-16 2.1507972309526063e-17 0.03436245941439237" pbc="T T T"
Si       2.82942536       1.95801125       3.80376094
Si       2.75925807       1.95801125       1.78631722
Si       3.80306358       3.95222022       2.75995544
Si       1.78561985       3.95222022       2.83012272
Si       5.55356338       3.95222022       1.00945563
Si       0.03512005       3.95222022       4.58062252
Si       4.57992516       1.95801125       5.55426074
Si       1.00875827       1.95801125       0.03581741
8
Lattice="5.565136269032824 0.0 0.0 0.0 6.040878401922563 -1.4341516413188742e-16 0.0 1.2887511577977998e-16 5.565136269032824" Properties=species:S:1:pos:R:3 unique_starting_index=2 config_type=initial n_minim_iter=5 stress="-0.008217896785365657 6.527565150103168e-18 3.7507537706246216e-16 6.527565150103168e-18 0.00026769001459259797 1.3008277171443388e-16 3.7507537706246216e-16 1.3008277171443388e-16 -0.008217896785374733" pbc="T T T"
Si       2.81074769       1.98432219       3.78699686
Si       2.75446109       1.98432219       1.77960079
Si       3.78630242       4.05698032       2.75515553
Si       1.77890635       4.05698032       2.81144212
Si       5.53702922       4.05698032       1.00442872
Si       0.02817955       4.05698032       4.56216892
Si       4.56147449       1.98432219       5.53772366
Si       1.00373429       1.98432219       0.02887399
8
Lattice="5.516323071182856 0.0 0.0 0.0 6.1472300803241255 -1.47107545011826e-16 0.0 1.265107409516132e-16 5.516323071182856" Properties=species:S:1:pos:R:3 unique_starting_index=2 config_type=initial n_minim_iter=6 stress="0.003011118524684401 2.0179494919018067e-17 -2.1648443446211293e-16 2.0179494919018067e-17 -0.001262565067859288 1.1185662814313702e-16 -2.1648443446211293e-16 1.1185662814313702e-16 0.003011118524676918" pbc="T T T"
Si       2.75035801       2.00770169       3.76432077
Si       2.76603693       2.00770169       1.75345087
Si       3.76363242       4.13995995       2.76672527
Si       1.75276252       4.13995995       2.75104636
Si       5.52419846       4.13995995       1.00615923
Si      -0.00780352       4.13995995       4.51161240
Si       4.51092406       2.00770169       5.52488681
Si       1.00547089       2.00770169      -0.00711518
8
Lattice="5.49231877836463 -3.3594551621605984e-81 -2.4528441512171728e-64 -1.9270506095591075e-81 6.201188721656453 -1.562857896522506e-16 7.477306703440618e-65 1.1867142801451155e-16 5.49231877836463" Properties=species:S:1:pos:R:3 unique_starting_index=2 config_type=initial n_minim_iter=7 stress="-0.0002218096966317239 -3.086221928985421e-17 -3.204922772407937e-16 -3.086221928985421e-17 -0.0022123842334260476 8.644064349626008e-17 -3.204922772407937e-16 8.644064349626008e-17 -0.00022180969663696575" pbc="T T T"
Si       2.72830170       2.02188814       3.75243492
Si       2.76408864       2.02188814       1.74132612
Si       3.75174957       4.17973593       2.76477399
Si       1.74064077       4.17973593       2.72898705
Si       5.51024803       4.17973593       1.00627553
Si      -0.01785769       4.17973593       4.48748551
Si       4.48680016       2.02188814       5.51093338
Si       1.00559018       2.02188814      -0.01717234
8
Lattice="5.4155185941715125 -4.1646847315692185e-81 -8.824148483044688e-64 -1.7247757676534e-80 6.434225300772091 -1.0464523034541608e-16 1.7818882840429044e-63 1.7459935912490835e-16 5.41551859417151" Properties=species:S:1:pos:R:3 unique_starting_index=2 config_type=initial n_minim_iter=8 stress="-0.040365542361005986 1.1766948663899573e-18 -3.054258612573433e-16 1.1766948663899573e-18 -0.021339590122106965 9.210854854526701e-17 -3.054258612573433e-16 9.210854854526701e-17 -0.04036554236102071" pbc="T T T"
Si       2.69522493       2.10156043       3.71343751
Si       2.72036422       2.10156043       1.70350317
Si       3.71276175       4.33311658       2.72103999
Si       1.70282741       4.33311658       2.69590070
Si       5.42812352       4.33311658       1.00567821
Si      -0.01253437       4.33311658       4.41126247
Si       4.41058670       2.10156043       5.42879929
Si       1.00500245       2.10156043      -0.01185860
8
Lattice="5.320228736479976 3.0810708838609423e-80 -8.470547208514426e-64 -1.5931615058140361e-80 6.800518134573599 -2.977294843103223e-16 1.5307177158726064e-63 2.066849821050425e-17 5.320228736479974" Properties=species:S:1:pos:R:3 unique_starting_index=2 config_type=initial n_minim_iter=9 stress="-0.08523510095205614 4.787245613155745e-17 -5.340770887176878e-16 4.787245613155745e-17 -0.04025640282657813 1.400465919022259e-16 -5.340770887176878e-16 1.400465919022259e-16 -0.0852351009520667" pbc="T T T"
Si       2.65577065       2.22828396       3.66503719
Si       2.66452740       2.22828396       1.65658861
Si       3.66437332       4.57271161       2.66519128
Si       1.65592474       4.57271161       2.65643453
Si       5.32464177       4.57271161       1.00492282
Si      -0.00434372       4.57271161       4.31670298
Si       4.31603910       2.22828396       5.32530565
Si       1.00425895       2.22828396      -0.00367984
8
Lattice="5.288228261070658 2.5534917533190516e-80 -7.883154631816883e-64 -3.944779900153559e-81 6.951743433431179 -2.1917581370770168e-16 1.3877962785624286e-63 9.765825566160021e-17 5.288228261070658" Properties=species:S:1:pos:R:3 unique_starting_index=2 config_type=initial n_minim_iter=10 stress="-0.10002362282594199 3.597797025559048e-17 -6.952617828385028e-16 3.597797025559048e-17 -0.04290237198099658 3.259736724844723e-17 -6.952617828385028e-16 3.259736724844723e-17 -0.10002362282595208" pbc="T T T"
Si       2.64522274       2.28265213       3.64881236
Si       2.64307442       2.28265213       1.64080456
Si       3.64815248       4.66957935       2.64373430
Si       1.64014468       4.66957935       2.64588263
Si       5.28718855       4.66957935       1.00469823
Si       0.00110861       4.66957935       4.28491869
Si       4.28425881       2.28265213       5.28784843
Si       1.00403835       2.28265213       0.00176849
8
Lattice="5.263385371801276 2.1741454839748223e-79 6.946825474892183e-65 1.6231002429508128e-79 7.226005054737221 -1.4680178591186455e-15 4.204362876214287e-64 -1.1310916863313589e-15 5.263385371801275" Properties=species:S:1:pos:R:3 unique_starting_index=2 config_type=initial n_minim_iter=11 stress="-0.09358155147908734 -2.9948521731819484e-17 -3.206987535449003e-16 -2.9948521731819484e-17 -0.015570498484225034 -4.6985209730881144e-17 -3.206987535449003e-16 -4.6985209730881144e-17 -0.09358155147909876" pbc="T T T"
Si       2.65482116       2.38988336       3.63693004
Si       2.60863279       2.38988336       1.62783747
Si       3.63627326       4.83662899       2.60928957
Si       1.62718069       4.83662899       2.65547794
Si       5.24032548       4.83662899       1.00523735
Si       0.02312847       4.83662899       4.25953016
Si       4.25887338       2.38988336       5.24098226
Si       1.00458057       2.38988336       0.02378525
8
Lattice="5.360345301795947 4.012104836360487e-79 7.074797049107518e-65 -1.2157992931402947e-79 7.042627131531818 -1.4288414462038872e-15 2.1363421763998232e-63 -1.045377303774317e-15 5.360345301795945" Properties=species:S:1:pos:R:3 unique_starting_index=2 config_type=initial n_minim_iter=12 stress="-0.027701738246916525 9.326934393244771e-18 -3.3192913575959334e-17 9.326934393244771e-18 -0.019199776692735922 -1.1915844491369697e-16 -3.3192913575959334e-17 -1.1915844491369697e-16 -0.027701738246921195" pbc="T T T"
Si       2.73249135       2.34991995       3.68863442
Si       2.62792379       2.34991995       1.67311848
Si       3.68796554       4.69320161       2.62859267
Si       1.67244960       4.69320161       2.73316023
Si       5.30809644       4.69320161       1.00846177
Si       0.05231870       4.69320161       4.35329113
Si       4.35262225       2.34991995       5.30876532
Si       1.00779289       2.34991995       0.05298758
8
Lattice="5.420338287200216 1.1050355814874047e-79 3.487861349095122e-63 -3.635455680350876e-79 7.097643994434634 -3.0683690279839717e-15 -2.964230232610319e-63 -2.6300521654281422e-15 5.420338287200213" Properties=species:S:1:pos:R:3 unique_starting_index=2 config_type=initial n_minim_iter=13 stress="0.01629834939592357 4.206010233068176e-17 -2.2174724836365762e-16 4.206010233068176e-17 -0.001418722280815133 8.469420526674663e-17 -2.2174724836365762e-16 8.469420526674663e-17 0.01629834939591982" pbc="T T T"
Si       2.72930232       2.38933713       3.72400044
Si       2.69110659       2.38933713       1.69776120
Si       3.72332407       4.70880516       2.69178296
Si       1.69708483       4.70880516       2.72997868
Si       5.40127573       4.70880516       1.01383130
Si       0.01913317       4.70880516       4.40793035
Si       4.40725398       2.38933713       5.40195210
Si       1.01315493       2.38933713       0.01980954
8
Lattice="5.474512554769095 7.11470038626273e-79 3.9497614234806325e-63 -1.4505288187869972e-79 7.106651228164098 -2.6628846062622906e-15 4.330566007139292e-64 -2.2104899996384624e-15 5.474512554769092" Properties=species:S:1:pos:R:3 unique_starting_index=2 config_type=initial n_minim_iter=14 stress="0.03723250648672003 7.297638584938644e-18 -1.303312641028886e-16 7.297638584938644e-18 -0.029584607421844124 6.848484608556068e-17 -1.303312641028886e-16 6.848484608556068e-17 0.03723250648671939" pbc="T T T"
Si       2.73208574       2.46375438       3.75765665
Si       2.74249814       2.46375438       1.71829349
Si       3.75697352       4.64339577       2.74318127
Si       1.71761036       4.64339577       2.73276887
Si       5.47975442       4.64339577       1.02040037
Si      -0.00517054       4.64339577       4.45554977
Si       4.45486664       2.46375438       5.48043755
Si       1.01971724       2.46375438      -0.00448741
8
Lattice="5.483942701564577 6.487739096616966e-79 4.1700852011545986e-63 -8.139998783799679e-80 7.310177220963921 -2.9752929657096566e-15 2.2028246639771398e-64 -2.5536019390166383e-15 5.483942701564574" Properties=species:S:1:pos:R:3 unique_starting_index=2 config_type=initial n_minim_iter=15 stress="0.038510148024973344 1.2120143139433761e-17 7.433056534730861e-17 1.2120143139433761e-17 -0.016715549763644002 4.42511476080368e-17 7.433056534730861e-17 4.42511476080368e-17 0.03851014802497305" pbc="T T T"
Si       2.72661722       2.58233999       3.76457628
Si       2.75739693       2.58233999       1.72080648
Si       3.76389197       4.72835045       2.75808123
Si       1.72012218       4.72835045       2.72730153
Si       5.49936828       4.72835045       1.02260493
Si      -0.01535413       4.72835045       4.46277783
Si       4.46209353       2.58233999       5.50005258
Si       1.02192062       2.58233999      -0.01466982
8
Lattice="5.460038384115092 1.8025997622122839e-78 4.1385629371971014e-63 1.9215184811697384e-81 7.4662361993216955 -1.57807550709626e-15 2.0764538235297737e-64 -1.2495603866890053e-15 5.460038384115089" Properties=species:S:1:pos:R:3 unique_starting_index=2 config_type=initial n_minim_iter=16 stress="0.033514184044283364 2.892977838374337e-17 -1.3630196501974347e-16 2.892977838374337e-17 0.028276252223836024 1.147534399485347e-16 -1.3630196501974347e-16 1.147534399485347e-16 0.03351418404428196" pbc="T T T"
Si       2.72975969       2.63523615       3.74765869
Si       2.73034984       2.63523615       1.71381348
Si       3.74697737       4.83152422       2.73103116
Si       1.71313215       4.83152422       2.73044101
Si       5.46036903       4.83152422       1.01763950
Si      -0.00025951       4.83152422       4.44383267
Si       4.44315135       2.63523615       5.46105035
Si       1.01695818       2.63523615       0.00042182
8
Lattice="5.440613454093782 3.8551441004929686e-79 4.1372532202861463e-63 -7.126505469137166e-83 7.452705784134843 -3.4931327837324274e-15 2.335966640726736e-64 -3.1083929180121513e-15 5.44061345409378" Properties=species:S:1:pos:R:3 unique_starting_index=2 config_type=initial n_minim_iter=17 stress="0.022207462105300786 5.938578726547224e-17 -1.7520065416773323e-16 5.938578726547224e-17 0.012702822241471328 1.0051380662902257e-16 -1.7520065416773323e-16 1.0051380662902257e-16 0.022207462105295887" pbc="T T T"
Si       2.73288186       2.60647973       3.73307507
Si       2.70780248       2.60647973       1.70896706
Si       3.73239617       4.84674927       2.70848137
Si       1.70828817       4.84674927       2.73356076
Si       5.42810920       4.84674927       1.01276834
Si       0.01257514       4.84674927       4.42927379
Si       4.42859489       2.60647973       5.42878810
Si       1.01208944       2.60647973       0.01325403
8
Lattice="5.470479458747878 7.467745410001169e-79 3.3058840952997217e-63 8.998860332597561e-81 7.349077444529541 -2.5902756565662068e-15 1.0889593743579036e-63 -2.2073691478285093e-15 5.470479458747876" Properties=species:S:1:pos:R:3 unique_starting_index=2 config_type=initial n_minim_iter=18 stress="0.0009125375647804511 1.81731044759313e-16 2.5271973411841963e-16 1.81731044759313e-16 -0.0022062532869649124 1.3482329635724553e-16 2.5271973411841963e-16 1.3482329635724553e-16 0.0009125375647631019" pbc="T T T"
Si       2.75613570       2.59651517       3.74100463
Si       2.71441503       2.59651517       1.73091135
Si       3.74032201       4.75307822       2.71509766
Si       1.73022873       4.75307822       2.75681833
Si       5.44965476       4.75307822       1.00576490
Si       0.02089597       4.75307822       4.46615108
Si       4.46546846       2.59651517       5.45033738
Si       1.00508228       2.59651517       0.02157860
8
Lattice="5.478734813990366 1.7093285110365586e-78 4.16495330900292e-63 1.1179602662887133e-80 7.329677438192006 -1.5352014275848455e-15 2.3652230219746143e-64 -1.1776365371847495e-15 5.478734813990365" Properties=species:S:1:pos:R:3 unique_starting_index=2 config_type=initial n_minim_iter=19 stress="0.005411744884640498 1.2413661947122126e-16 1.242470051846738e-16 1.2413661947122126e-16 -0.00510871710823177 2.2036930752039908e-16 1.242470051846738e-16 2.2036930752039908e-16 0.0054117448846311" pbc="T T T"
Si       2.74773743       2.60100835       3.74573546
Si       2.73106876       2.60100835       1.73443804
Si       3.74505181       4.72918367       2.73175242
Si       1.73375439       4.72918367       2.74842109
Si       5.47043617       4.72918367       1.00636805
Si       0.00837002       4.72918367       4.47380545
Si       4.47312180       2.60100835       5.47111983
Si       1.00568440       2.60100835       0.00905368
8
Lattice="5.473754202996445 1.2488367245340224e-78 4.1611670311588054e-63 -1.3103690546647756e-81 7.350084970368255 -2.148394905976567e-15 2.278718642754788e-65 -1.7758579188360046e-15 5.473754202996444" Properties=species:S:1:pos:R:3 unique_starting_index=2 config_type=initial n_minim_iter=20 stress="-0.005607634349822378 1.0284364347511055e-16 -1.220342704984131e-16 1.0284364347511055e-16 -0.00012273589193578327 1.9110132730888234e-16 -1.220342704984131e-16 1.9110132730888234e-16 -0.005607634349836187" pbc="T T T"
Si       2.73746270       2.60865674       3.74222686
Si       2.73636282       2.60865674       1.73296473
Si       3.74154383       4.74194425       2.73704585
Si       1.73228169       4.74194425       2.73814573
Si       5.47323992       4.74194425       1.00534976
Si       0.00058560       4.74194425       4.46984183
Si       4.46915879       2.60865674       5.47392295
Si       1.00466672       2.60865674       0.00126863
8
Lattice="5.4735742134812355 1.2131141081944326e-79 3.3069498106747685e-63 -2.0332636690092467e-80 7.3532776281815595 -3.2225968082617396e-15 -8.313333061958509e-64 -2.817352037058879e-15 5.4735742134812355" Properties=species:S:1:pos:R:3 unique_starting_index=2 config_type=initial n_minim_iter=21 stress="-0.0008818241894754449 1.1792424439245781e-16 -1.703330511242354e-16 1.1792424439245781e-16 0.0005265408382207643 2.0271206942514512e-16 -1.703330511242354e-16 2.0271206942514512e-16 -0.000881824189487185" pbc="T T T"
Si       2.73625731       2.60891646       3.74263584
Si       2.73738822       2.60891646       1.73237571
Si       3.74195283       4.74487741       2.73807123
Si       1.73169270       4.74487741       2.73694032
Si       5.47417532       4.74487741       1.00584874
Si      -0.00052979       4.74487741       4.46916281
Si       4.46847980       2.60891646       5.47485833
Si       1.00516573       2.60891646       0.00015322
