14
Lattice="6.5949298808958625 2.5862378577752536 -0.9935342029677076 -0.34818694970435105 7.075344075259545 0.9935334257762668 -4.16830736191722 -4.155182114606796 5.6016107144578635" Properties=species:S:1:pos:R:3 unique_starting_index=10 config_type=initial n_minim_iter=19 energy=-2279.6249496326377 free_energy=-2279.6249496326377 pbc="T T T"
Si       2.58190988       4.97518028       3.76821912
Si      -0.69104891       0.24110558       1.83339084
Si       1.12628142       3.10635275       3.45833197
Si       4.44889931       7.80831986       2.14327754
Si      -0.85184878      -2.66864806       4.13742927
Si      -0.00551251       3.63437090       1.46418104
Si       0.60377968      -0.79982054       4.44731642
Si       1.10128220       5.72873854       1.15429356
Si       4.26354885       6.59425673      -0.00000053
Si      -2.57416535      -1.68958783       5.60161052
Si       1.28663266       6.94280168       3.29757163
Si      -2.29070343       1.40988219       3.29757207
Si       2.92970740       1.87020762       2.30403804
Si       2.96866106       4.59150671      -0.00000037
