6
Lattice="4.191949738230182 -0.46524581088206074 0.04132180983906776 -1.6794707232560102 3.6202542160552103 0.038533185970096306 -1.1890529553950462 -0.4991304508826927 9.584771914034272" Properties=species:S:1:pos:R:3 unique_starting_index=56 config_type=initial n_minim_iter=1 energy=-978.6106887684358 free_energy=-978.6106887684358 pbc="T T T"
Si      -0.49664440       2.69686732       7.22908590
Si       0.52873944       2.62336787      -0.44022409
Si      -1.90652438       3.30325930       2.37016539
Si       0.29043214       0.85905748       7.46797514
Si       2.48546638       0.62682510       7.39026320
Si       0.10428760       2.01535225       2.24387299
6
Lattice="4.183973436571276 -0.47348317743573787 0.04269532204406193 -1.6827662565612764 3.6259127433044016 0.04034448119567059 -1.181749085755092 -0.4906653690682211 9.586743177554986" Properties=species:S:1:pos:R:3 unique_starting_index=56 config_type=initial n_minim_iter=2 stress="-0.0009199998453737482 -0.0011520215335688378 -0.004802480870320271 -0.0011520215335688378 -0.001517053354615492 -0.004572691865029531 -0.004802480870320271 -0.004572691865029531 -0.002945564827184142" pbc="T T T"
Si      -0.49660159       2.70513826       7.23278266
Si       0.52239322       2.62379353      -0.43831170
Si      -1.90762203       3.31078197       2.37270009
Si       0.29064192       0.86457985       7.47103095
Si       2.48139110       0.62668938       7.39365726
Si       0.10094707       2.01797088       2.24560441
6
Lattice="4.18198313114631 -0.475372366946285 0.047728468354673155 -1.6832503514619077 3.6289001938004204 0.04316277218581147 -1.1680082506131313 -0.4771442462791618 9.59257170775786" Properties=species:S:1:pos:R:3 unique_starting_index=56 config_type=initial n_minim_iter=3 stress="0.013155538801300984 -0.0022495671362846486 -0.005720137470288218 -0.0022495671362846486 0.0125974905604666 -0.006816660200051053 -0.005720137470288218 -0.006816660200051053 0.001785905892434142" pbc="T T T"
Si      -0.48521162       2.71888816       7.24193371
Si       0.52032532       2.62447325      -0.43424597
Si      -1.90421303       3.31706492       2.37760915
Si       0.30080911       0.87576404       7.47913114
Si       2.48691511       0.63448107       7.40390293
Si       0.10257847       2.02210791       2.24965887
6
Lattice="4.1759646528570835 -0.47376585446542535 0.05293120213941358 -1.6798845890190346 3.6248466976778673 0.046292850332926315 -1.1529702156397406 -0.4624343688993126 9.593212260857788" Properties=species:S:1:pos:R:3 unique_starting_index=56 config_type=initial n_minim_iter=4 stress="-0.0001713076198004334 0.00028630450039200726 -0.005691937589300073 0.00028630450039200726 -0.007540047166747245 -0.004000363821516171 -0.005691937589300073 -0.004000363821516171 -0.008836122846635458" pbc="T T T"
Si      -0.47223251       2.72744808       7.24779976
Si       0.51949442       2.62117277      -0.42983876
Si      -1.89684516       3.31695867       2.38152116
Si       0.31135368       0.88670783       7.48328293
Si       2.49244262       0.64489593       7.41058351
Si       0.10557926       2.02326279       2.25281019
6
Lattice="4.153505917653766 -0.4698319969586839 0.09181917007764073 -1.6668059912252642 3.629327273793514 0.0636825642144014 -1.0489069237899065 -0.37368490327701553 9.654575699788559" Properties=species:S:1:pos:R:3 unique_starting_index=56 config_type=initial n_minim_iter=5 stress="-0.007314507078601453 0.009315938316251458 -0.009606654819343656 0.009315938316251458 -0.006899129839858456 -0.004218138987451416 -0.009606654819343656 -0.004218138987451416 0.02762198620273893" pbc="T T T"
Si      -0.38851868       2.79851275       7.32496489
Si       0.51376953       2.62035434      -0.40222124
Si      -1.85565287       3.34396065       2.41875332
Si       0.38931097       0.96113861       7.55619907
Si       2.55064152       0.71960782       7.50229585
Si       0.12638978       2.04614857       2.28576373
6
Lattice="4.134147197543946 -0.4717987702143847 0.14544429976119283 -1.6590065684882274 3.6424224223503323 0.0844030142466424 -0.9080000282461206 -0.25810478898513917 9.680794221403392" Properties=species:S:1:pos:R:3 unique_starting_index=56 config_type=initial n_minim_iter=6 stress="0.015151726359151414 0.004395278457940822 -0.0031169428350967324 0.004395278457940822 0.020015590018211966 0.009835453222588813 -0.0031169428350967324 0.009835453222588813 -0.010151653411079384" pbc="T T T"
Si      -0.28177336       2.89549730       7.38704459
Si       0.50315805       2.62223404      -0.36653043
Si      -1.80949695       3.38632978       2.45285347
Si       0.49775258       1.05504333       7.61030540
Si       2.63688415       0.81431375       7.58291136
Si       0.15222041       2.07778481       2.31583385
6
Lattice="4.114973125012027 -0.47426263573275523 0.1889649406000777 -1.6529945304203046 3.643547521604476 0.09119722752314885 -0.7956976123918229 -0.19061177921576022 9.724329372317994" Properties=species:S:1:pos:R:3 unique_starting_index=56 config_type=initial n_minim_iter=7 stress="0.01072813821743306 -0.003781861359893232 -0.0011093439701144261 -0.003781861359893232 0.01658239211869074 0.0004940348582310451 -0.0011093439701144261 0.0004940348582310451 0.019117703473657936" pbc="T T T"
Si      -0.20023133       2.94874034       7.44381773
Si       0.49284769       2.61667812      -0.34576616
Si      -1.77294804       3.40564121       2.47722677
Si       0.58360998       1.10386921       7.66711294
Si       2.70248746       0.86660653       7.66174300
Si       0.17142977       2.09079489       2.33870381
6
Lattice="4.100590300604979 -0.4689924332356203 0.21520120132495305 -1.6419150366421862 3.647811132185486 0.08599217844791122 -0.7308899711753212 -0.1785265435965808 9.721721230434209" Properties=species:S:1:pos:R:3 unique_starting_index=56 config_type=initial n_minim_iter=8 stress="-0.005146931217335487 0.010766266195406252 0.00039144018972499326 0.010766266195406252 0.026076918230053363 0.0008069045456396694 0.00039144018972499326 0.0008069045456396694 0.01001903247480424" pbc="T T T"
Si      -0.14580545       2.96740586       7.44668362
Si       0.49004454       2.61783595      -0.34223336
Si      -1.74463734       3.41530703       2.48156363
Si       0.63146553       1.11782463       7.67351188
Si       2.74286676       0.88304986       7.68661233
Si       0.18611373       2.09489822       2.33765862
6
Lattice="4.102485914861581 -0.4770958841591351 0.3026247116303472 -1.649977440398008 3.6355110570769784 0.0599322903540294 -0.5273196205639326 -0.14879124049036205 9.726625343536677" Properties=species:S:1:pos:R:3 unique_starting_index=56 config_type=initial n_minim_iter=9 stress="-0.0034560183761166343 0.009735221724653211 0.0077647181960354 0.009735221724653211 -0.019193740261969704 0.001113350368914485 0.0077647181960354 0.001113350368914485 -0.009481327284080748" pbc="T T T"
Si       0.01065210       2.98061217       7.45677839
Si       0.46547890       2.58755633      -0.34164234
Si      -1.69544260       3.42197406       2.49811008
Si       0.78658967       1.14057804       7.70069796
Si       2.89651434       0.89643335       7.77944599
Si       0.22062500       2.07848782       2.32835646
6
Lattice="4.118745710994421 -0.48523132815480113 0.25675835099825817 -1.6642551810329986 3.633190616048339 0.06584664043585337 -0.6395151998932634 -0.1803621599328491 9.74449182579233" Properties=species:S:1:pos:R:3 unique_starting_index=56 config_type=initial n_minim_iter=10 stress="-0.019964796891243794 -0.005023689171344876 0.0002404306165228254 -0.005023689171344876 -0.02716991006823263 0.003560321080912831 0.0002404306165228254 0.003560321080912831 -0.025884949600768023" pbc="T T T"
Si      -0.07938238       2.95741816       7.45649973
Si       0.46200441       2.57821165      -0.37016493
Si      -1.74148708       3.41176756       2.52038766
Si       0.69878726       1.11267158       7.68530273
Si       2.82842720       0.86324648       7.76453357
Si       0.19664877       2.06582477       2.31673676
6
Lattice="4.112016565054891 -0.4895217171669654 0.25492034661406066 -1.6643940446139125 3.642419078986912 0.07973503013563371 -0.6375378344605572 -0.1441775316556746 9.770426122709372" Properties=species:S:1:pos:R:3 unique_starting_index=56 config_type=initial n_minim_iter=11 stress="-0.01326826766457463 -0.0034937630120398197 -0.0001055145349147688 -0.0034937630120398197 -0.0013868457624995922 0.005027030288905253 -0.0001055145349147688 0.005027030288905253 -0.00659093497257439" pbc="T T T"
Si      -0.08040296       2.99555664       7.48077923
Si       0.45220800       2.56908859      -0.37310296
Si      -1.74548980       3.42670817       2.56405642
Si       0.70267667       1.14978502       7.69673615
Si       2.82414908       0.89517223       7.80704811
Si       0.19891399       2.07714201       2.31968440
6
Lattice="4.101589595223992 -0.4921410803782159 0.22801103613468635 -1.6618908272562272 3.649306656173503 0.07255198259036795 -0.7010376824299008 -0.1941021470795643 9.740102494755547" Properties=species:S:1:pos:R:3 unique_starting_index=56 config_type=initial n_minim_iter=12 stress="-0.0012126154933942634 -0.006735226885459291 -0.0035733181628383607 -0.006735226885459291 0.0006544030428587221 -0.004497390335976318 -0.0035733181628383607 -0.004497390335976318 0.005258859008500192" pbc="T T T"
Si      -0.13068564       2.96728257       7.43280070
Si       0.44579823       2.55948327      -0.39577244
Si      -1.76719127       3.41049302       2.56792718
Si       0.66109486       1.12477430       7.64316491
Si       2.76363173       0.86424131       7.77063713
Si       0.18985973       2.07284387       2.29407433
6
Lattice="4.08883187845278 -0.49081984406743756 0.25152905438855044 -1.654942003134336 3.6538768428374815 0.07528143830439005 -0.6409630839687425 -0.16262479208758032 9.806410883800888" Properties=species:S:1:pos:R:3 unique_starting_index=56 config_type=initial n_minim_iter=13 stress="0.0020697688210296154 -0.00054430174299809 -0.00040460917788316263 -0.00054430174299809 0.0013179055575405678 0.001195494477204566 -0.00040460917788316263 0.001195494477204566 0.008078770812052922" pbc="T T T"
Si      -0.08264304       2.99949772       7.50186870
Si       0.43742002       2.55260193      -0.39820029
Si      -1.74497208       3.41975440       2.59742038
Si       0.71025286       1.15697016       7.70060211
Si       2.79796518       0.89618676       7.85108755
Si       0.20200643       2.08152704       2.31298863
6
Lattice="4.101588661772253 -0.486979992668986 0.25860487199951476 -1.6562131166310061 3.6551075980411465 0.04261819071857992 -0.6379060168277985 -0.24708227582875936 9.773170760108975" Properties=species:S:1:pos:R:3 unique_starting_index=56 config_type=initial n_minim_iter=14 stress="0.0045026288308933436 0.007221541849626049 0.0011116586296003302 0.007221541849626049 0.0028491146932161987 -0.002124647497894918 0.0011116586296003302 -0.002124647497894918 0.0002266778031597591" pbc="T T T"
Si      -0.07557897       2.94404882       7.46282855
Si       0.44022449       2.55032500      -0.41378989
Si      -1.74445851       3.39435271       2.54238111
Si       0.71490118       1.10135053       7.66291545
Si       2.81908940       0.84046150       7.81134457
Si       0.20261466       2.06205857       2.29591504
6
Lattice="4.0499591337858085 -0.4888172260682243 0.25648523240867216 -1.6311257073747287 3.705133684386226 -0.0036861527388681896 -0.6433408544619463 -0.38722335189762347 9.762849759582139" Properties=species:S:1:pos:R:3 unique_starting_index=56 config_type=initial n_minim_iter=15 stress="-0.00845480692596947 -0.004130867989727723 -0.0018502542876135681 -0.004130867989727723 0.001115009343002153 -0.009406976150416142 -0.0018502542876135681 -0.009406976150416142 0.0023773076315471613" pbc="T T T"
Si      -0.07309372       2.92029179       7.47374615
Si       0.40709939       2.49938301      -0.44723307
Si      -1.72562724       3.37233401       2.48717804
Si       0.73392291       1.07508856       7.58215146
Si       2.78156611       0.81092757       7.77044074
Si       0.18396023       2.03284094       2.27364646
6
Lattice="4.043378140625334 -0.4890787119962252 0.29010516311917944 -1.6251805816334988 3.732859149831707 -0.01871668484229268 -0.5661693340958904 -0.39748669040488 9.809336657077496" Properties=species:S:1:pos:R:3 unique_starting_index=56 config_type=initial n_minim_iter=16 stress="0.020332269996392986 -0.002868754535708892 0.002721470352866385 -0.002868754535708892 0.03728815902581009 -0.007556759363619259 0.002721470352866385 -0.007556759363619259 0.02171909029903065" pbc="T T T"
Si      -0.00038961       2.97508032       7.57577572
Si       0.38313927       2.44396341      -0.43829453
Si      -1.69920715       3.38288418       2.47164203
Si       0.80775501       1.12323990       7.59614187
Si       2.85000134       0.86037667       7.79884288
Si       0.18262927       2.00941417       2.28949293
6
Lattice="4.052865480928868 -0.4876322640102047 0.2833658475145055 -1.6306485259572236 3.7103431698514053 0.017317415682186626 -0.5738423052171083 -0.3008767503608498 9.821784320682122" Properties=species:S:1:pos:R:3 unique_starting_index=56 config_type=initial n_minim_iter=17 stress="0.0038318519332200046 -0.003527566260833191 0.0030877063730988088 -0.003527566260833191 -0.0028617887489697327 0.002127263557496546 0.0030877063730988088 0.002127263557496546 0.007804001502305962" pbc="T T T"
Si      -0.00463714       3.02418475       7.59868288
Si       0.38655015       2.43865664      -0.42259321
Si      -1.70720275       3.40185955       2.52590643
Si       0.79641417       1.17328390       7.63510566
Si       2.85070760       0.91635134       7.82066608
Si       0.18408972       2.01500236       2.29819161
6
Lattice="4.041476448242186 -0.4830157240788235 0.264630493091858 -1.6214714269908677 3.716801089831613 0.008925838067918848 -0.6193035011140391 -0.3481503019941083 9.827617434620446" Properties=species:S:1:pos:R:3 unique_starting_index=56 config_type=initial n_minim_iter=18 stress="-0.009585392189244382 -5.250030147751906e-05 -0.0015025799439093625 -5.250030147751906e-05 -0.011336791394863353 -0.0033351867427257862 -0.0015025799439093625 -0.0033351867427257862 0.014445353850078262" pbc="T T T"
Si      -0.02981110       3.01115847       7.60483665
Si       0.37789299       2.40985633      -0.44650351
Si      -1.71662368       3.39135981       2.53203139
Si       0.76983194       1.16340116       7.61908450
Si       2.81428275       0.91019080       7.79984408
Si       0.17429776       1.99356086       2.27900319
6
Lattice="4.034394721805533 -0.47589832771498414 0.24752743898641855 -1.612032298091171 3.7225086969251935 0.011064844565557374 -0.658979285753969 -0.36467014528552905 9.81726631506843" Properties=species:S:1:pos:R:3 unique_starting_index=56 config_type=initial n_minim_iter=19 stress="-0.010493872531723566 0.005737907144244825 -0.0030488669939696565 0.005737907144244825 -0.005509188396880735 -0.003631048292737026 -0.0030488669939696565 -0.003631048292737026 0.009914707496767526" pbc="T T T"
Si      -0.05065151       3.01675484       7.60925031
Si       0.37835752       2.39330310      -0.45055909
Si      -1.72419435       3.38807217       2.52727706
Si       0.74619279       1.16862585       7.61048970
Si       2.78425778       0.92442622       7.75620517
Si       0.16796949       1.98548996       2.27115334
6
Lattice="4.047323352795796 -0.47498141122964166 0.24339443928753507 -1.6170571642334 3.7174635774535547 0.015026953111036037 -0.6713893693694861 -0.3575619111351107 9.814487532212269" Properties=species:S:1:pos:R:3 unique_starting_index=56 config_type=initial n_minim_iter=20 stress="0.006945185286303961 0.0056059333763777515 -0.0015015215685486518 0.0056059333763777515 -0.0015972354517906312 -0.0023401666383627536 -0.0015015215685486518 -0.0023401666383627536 0.005743365698849867" pbc="T T T"
Si      -0.05766622       3.01820816       7.60555572
Si       0.38202734       2.39058819      -0.45529568
Si      -1.73848860       3.38419288       2.53484555
Si       0.73647624       1.16865126       7.62225655
Si       2.78753054       0.92723119       7.74593477
Si       0.17207121       1.98900406       2.26817961
6
Lattice="4.0388897676284685 -0.47710148034035277 0.25401249756590916 -1.6150145991106317 3.721467830591781 0.01983191024801946 -0.6417917782086217 -0.332453431832683 9.82580933740186" Properties=species:S:1:pos:R:3 unique_starting_index=56 config_type=initial n_minim_iter=21 stress="0.0012626616786932856 0.0022335659835242363 0.0013348004036713458 0.0022335659835242363 0.003169110873659335 0.0012723956757867902 0.0013348004036713458 0.0012723956757867902 0.003634621482941381" pbc="T T T"
Si      -0.03563646       3.04239816       7.62177251
Si       0.37759511       2.38522068      -0.45746921
Si      -1.73349747       3.39096210       2.55202626
Si       0.75809252       1.18903805       7.64520228
Si       2.80082881       0.94848946       7.76581308
Si       0.18090277       2.00054121       2.27235140
