22
Lattice="5.036133062611939 -0.7438972217759513 -2.086965609664769 -1.7225941077790705 10.302963904592081 -0.14324702014188764 -5.3148767396377625 -2.9311901697511407 11.724983606775416" Properties=species:S:1:pos:R:3 unique_starting_index=18 config_type=initial n_minim_iter=1 energy=-3597.585761133791 free_energy=-3597.585761133791 pbc="T T T"
Si       1.40337380       8.26804613       0.51341324
Si      -2.24066003      -0.88483803       5.86810341
Si      -4.34269622      -0.98161334      11.03417929
Si      -0.91581097      -0.63056173       9.49022154
Si      -5.33397305       2.02175271      11.30618585
Si       4.04957166       1.80717341      -0.25256046
Si       2.63810299       0.23712509      -0.06869953
Si      -2.05791508       3.48048785       8.82879591
Si      -2.66854435      -1.48192728      10.04655651
Si      -4.05696647       2.77304579       7.00439260
Si      -0.68303702       2.25393254       3.80481463
Si      -2.97073642       4.45811867       6.99794271
Si      -3.94958149      -1.23898961       6.86257643
Si      -0.00658970       6.88045000       0.13260547
Si       0.02836733       3.80905844       4.90875493
Si       1.57302038       6.65943716      -1.08262832
Si      -0.83684868      -1.47154892       4.48946328
Si       0.77396590      -2.29782825       6.73613142
Si       1.00580560       3.19873130       3.27034875
Si      -4.00055377       3.94254523       8.63754619
Si      -0.74809819       4.15371306       3.08305147
Si      -2.37663785      -1.01224712       8.09127836
22
Lattice="5.039107058723957 -0.7394470147297109 -2.0851097143732273 -1.714296094775672 10.29514445012286 -0.13982325256912875 -5.316137160465828 -2.929563671285017 11.72475978389331" Properties=species:S:1:pos:R:3 unique_starting_index=18 config_type=initial n_minim_iter=2 stress="0.008768369725633407 0.001350767222085908 0.0038896361145692652 0.001350767222085908 0.001953659425854513 -0.0005035484290698743 0.0038896361145692652 -0.0005035484290698743 0.004209441502076456" pbc="T T T"
Si       1.41332200       8.26483658       0.51816987
Si      -2.24071618      -0.88410377       5.86821919
Si      -4.34148004      -0.98036087      11.03505805
Si      -0.91174909      -0.62765655       9.49294027
Si      -5.33044361       2.02061126      11.30772322
Si       4.05520355       1.81013407      -0.24884521
Si       2.64118618       0.24017656      -0.06691534
Si      -2.05185941       3.48019990       8.83234477
Si      -2.66667129      -1.47938472      10.04811431
Si      -4.05404541       2.77096714       7.00586183
Si      -0.67949743       2.25395703       3.80609514
Si      -2.96532917       4.45544803       7.00045089
Si      -3.95045257      -1.23925311       6.86170293
Si      -0.00043739       6.87679340       0.13559494
Si       0.03470180       3.80850552       4.91203244
Si       1.58071020       6.65656264      -1.07925444
Si      -0.83680371      -1.46944402       4.49029826
Si       0.77649748      -2.29256624       6.73740488
Si       1.01165762       3.19896431       3.27375868
Si      -3.99541424       3.93982946       8.63955304
Si      -0.74264477       4.15120628       3.08596678
Si      -2.37510887      -1.01044459       8.09247052
22
Lattice="5.036600532255959 -0.7368045679094036 -2.0851889068646936 -1.7074687833127034 10.286460478871977 -0.1353722328640971 -5.316447498179636 -2.9256622605305993 11.72039316423548" Properties=species:S:1:pos:R:3 unique_starting_index=18 config_type=initial n_minim_iter=3 stress="-0.0070251289410063105 0.00454401055142883 0.00387122878260007 0.00454401055142883 -0.006506543538142545 0.001004047798280899 0.00387122878260007 0.001004047798280899 -0.008250596976184882" pbc="T T T"
Si       1.41768874       8.25976825       0.52152621
Si      -2.24123314      -0.88251671       5.86593261
Si      -4.34094089      -0.97750370      11.03153567
Si      -0.91252631      -0.62459797       9.49009476
Si      -5.32755519       2.02100394      11.30524474
Si       4.05451434       1.81128583      -0.24762506
Si       2.64055357       0.24226361      -0.06674166
Si      -2.05016295       3.48001438       8.83142596
Si      -2.66706848      -1.47572044      10.04473639
Si      -4.05107881       2.77001557       7.00533334
Si      -0.67822093       2.25395221       3.80523380
Si      -2.96215034       4.45302456       7.00012792
Si      -3.94956606      -1.23789966       6.85898820
Si       0.00293063       6.87232856       0.13832482
Si       0.03618597       3.80722943       4.91199793
Si       1.58428117       6.65211243      -1.07631774
Si      -0.83795329      -1.46687621       4.48884144
Si       0.77458394      -2.28733349       6.73379070
Si       1.01268416       3.19813614       3.27438813
Si      -3.99175007       3.93784543       8.63837707
Si      -0.73977457       4.14820496       3.08736538
Si      -2.37530092      -1.00775193       8.08986165
22
Lattice="5.040511198883499 -0.7375266903668932 -2.093031700422292 -1.7071324388858946 10.285657030430482 -0.12801964670821894 -5.330978752873699 -2.9194506661851047 11.736120562236733" Properties=species:S:1:pos:R:3 unique_starting_index=18 config_type=initial n_minim_iter=4 stress="3.6364610704948335e-06 0.0028445367863678427 -0.007081938945689793 0.0028445367863678427 -0.003016870825833877 0.0039284382781124595 -0.007081938945689793 0.0039284382781124595 -2.4524510126836458e-05" pbc="T T T"
Si       1.41856817       8.25957694       0.52555590
Si      -2.24945194      -0.87981431       5.87289509
Si      -4.35403135      -0.97153795      11.04640907
Si      -0.92332763      -0.62114012       9.50080164
Si      -5.34071243       2.02725325      11.32255218
Si       4.05629554       1.81184824      -0.24981299
Si       2.64251122       0.24401123      -0.06864488
Si      -2.06097132       3.48429649       8.84476331
Si      -2.67842331      -1.47024835      10.05663728
Si      -4.05948824       2.77441415       7.01843090
Si      -0.68230836       2.25691289       3.80970113
Si      -2.97065184       4.45577729       7.01192676
Si      -3.95726702      -1.23454197       6.86844645
Si       0.00193462       6.87364191       0.14208871
Si       0.03030342       3.80874391       4.91888999
Si       1.58704754       6.65125925      -1.07541010
Si      -0.84380651      -1.46412604       4.49447405
Si       0.76841640      -2.28275327       6.73732206
Si       1.00995461       3.19867512       3.27911295
Si      -4.00172617       3.94144325       8.65245375
Si      -0.74261490       4.14808418       3.09469540
Si      -2.38494165      -1.00346655       8.09998816
22
Lattice="5.0380134806380195 -0.7406425193400541 -2.0901792944647384 -1.714403637147787 10.29292617777213 -0.13464069645390564 -5.318094128790843 -2.923070343245785 11.741740580143968" Properties=species:S:1:pos:R:3 unique_starting_index=18 config_type=initial n_minim_iter=5 stress="-0.004750557840458873 -0.003040178840482876 0.0015385462444948937 -0.003040178840482876 -0.00111256881525991 0.0023170957308890853 0.0015385462444948937 0.0023170957308890853 0.0004068305500992578" pbc="T T T"
Si       1.41277002       8.26272372       0.52352306
Si      -2.24525603      -0.88220265       5.87455606
Si      -4.34254049      -0.97435347      11.05069497
Si      -0.91573973      -0.62790826       9.50810552
Si      -5.33106136       2.02758424      11.32437006
Si       4.05344069       1.81075877      -0.24633444
Si       2.64298363       0.24445772      -0.06526837
Si      -2.05699515       3.48296146       8.84832738
Si      -2.66852453      -1.47371400      10.06219333
Si      -4.05465615       2.77634104       7.01931823
Si      -0.68063635       2.25812998       3.80940765
Si      -2.96812017       4.45631988       7.01136570
Si      -3.94839528      -1.23601735       6.86971265
Si      -0.00408535       6.87972604       0.13788437
Si       0.03001018       3.80719785       4.92029311
Si       1.58085036       6.65460360      -1.07777548
Si      -0.83979030      -1.46626247       4.49938958
Si       0.77664665      -2.28695986       6.74211866
Si       1.01041980       3.19638225       3.28194875
Si      -3.99669663       3.94161187       8.65207309
Si      -0.74309710       4.14767814       3.09564244
Si      -2.37742694      -1.00642399       8.10454410
22
Lattice="5.040686391773711 -0.7352278869975415 -2.090463088677207 -1.7084968845226112 10.296549724337854 -0.14622278827505464 -5.326971628013269 -2.941795717220446 11.742999095915941" Properties=species:S:1:pos:R:3 unique_starting_index=18 config_type=initial n_minim_iter=6 stress="-0.001099776472556269 0.001345265632658617 -0.001625314952931871 0.001345265632658617 0.0026615416810193103 -0.0035181481275282605 -0.001625314952931871 -0.0035181481275282605 -0.0059594975882194395" pbc="T T T"
Si       1.41889020       8.26630867       0.51362248
Si      -2.25011417      -0.89149538       5.87259654
Si      -4.34852165      -0.99073144      11.04880093
Si      -0.92054662      -0.64194016       9.50666112
Si      -5.33593925       2.01281654      11.31914700
Si       4.05611576       1.81521085      -0.24937112
Si       2.64598741       0.24886867      -0.06510847
Si      -2.05951783       3.47202227       8.84248330
Si      -2.67470992      -1.48776714      10.06109549
Si      -4.05794250       2.76615947       7.01510262
Si      -0.68104560       2.25476068       3.80520735
Si      -2.96934216       4.44804495       7.00370910
Si      -3.95335252      -1.24760342       6.86982088
Si      -0.00008823       6.88403010       0.12803740
Si       0.02941665       3.80184697       4.91389900
Si       1.58568958       6.66013122      -1.08526536
Si      -0.84322719      -1.47261111       4.50156158
Si       0.77480903      -2.29433152       6.74029288
Si       1.01278192       3.19321794       3.27771997
Si      -3.99994937       3.93013451       8.64481948
Si      -0.74209042       4.14376952       3.09115539
Si      -2.38277859      -1.01820386       8.10383681
22
Lattice="5.039240919015609 -0.7334243479986349 -2.0948463867233804 -1.7054579537877108 10.281777202156944 -0.14402148544045176 -5.327231459110371 -2.936407904377219 11.763929762330758" Properties=species:S:1:pos:R:3 unique_starting_index=18 config_type=initial n_minim_iter=7 stress="-0.005676948662184926 0.0021720290700772663 -0.00037130247226321324 0.0021720290700772663 -0.00410409614594103 -0.003126428827875055 -0.00037130247226321324 -0.003126428827875055 0.004884175630158514" pbc="T T T"
Si       1.42100966       8.25443712       0.51768323
Si      -2.25184269      -0.89029285       5.87948898
Si      -4.34705933      -0.98785264      11.06762318
Si      -0.92163028      -0.64163495       9.52538848
Si      -5.33399367       2.01338677      11.33934265
Si       4.05408039       1.81490593      -0.24993812
Si       2.64859175       0.25468405      -0.06300847
Si      -2.05956169       3.46734802       8.86077766
Si      -2.67496755      -1.48396186      10.07884398
Si      -4.05787005       2.76082232       7.02754322
Si      -0.68050250       2.25280385       3.81291150
Si      -2.96823588       4.44264080       7.01663128
Si      -3.95354630      -1.24579683       6.88147003
Si       0.00148451       6.87669741       0.12624282
Si       0.02783068       3.79566441       4.92432108
Si       1.58526455       6.65162192      -1.08464845
Si      -0.84381793      -1.46955884       4.51285312
Si       0.77715138      -2.28714104       6.74845347
Si       1.01462080       3.18718017       3.28598574
Si      -3.99979966       3.92606264       8.66085540
Si      -0.74139256       4.13587167       3.09982325
Si      -2.38405718      -1.01589419       8.11874545
22
Lattice="5.0418345532027775 -0.7357827172569639 -2.0939732747429263 -1.708498282642189 10.282587393779561 -0.13780344189542368 -5.3288020236331874 -2.9283712926275483 11.755662644068058" Properties=species:S:1:pos:R:3 unique_starting_index=18 config_type=initial n_minim_iter=8 stress="-0.0009990345847680209 -0.0002712489686867914 7.315106102794792e-05 -0.0002712489686867914 -0.0014772739669316527 0.0017472801657900518 7.315106102794792e-05 0.0017472801657900518 -0.003696027768316187" pbc="T T T"
Si       1.42025823       8.25456108       0.52308171
Si      -2.25324449      -0.88664538       5.87423035
Si      -4.34816739      -0.98025574      11.06054156
Si      -0.92157828      -0.63640400       9.52051570
Si      -5.33635673       2.02181036      11.33383868
Si       4.05511307       1.81438866      -0.24861569
Si       2.65128352       0.25651345      -0.06180610
Si      -2.06129004       3.47274760       8.85861090
Si      -2.67527449      -1.47751291      10.07230224
Si      -4.06058457       2.76504017       7.02489298
Si      -0.68126058       2.25525861       3.81223013
Si      -2.97063944       4.44759097       7.01546435
Si      -3.95515205      -1.24107047       6.87655704
Si      -0.00005291       6.87823599       0.12905816
Si       0.02657864       3.79813716       4.92428878
Si       1.58399742       6.65123498      -1.07982643
Si      -0.84370535      -1.46669476       4.51088334
Si       0.77981092      -2.28243529       6.74218786
Si       1.01509115       3.18823006       3.28691492
Si      -4.00265480       3.93260572       8.65804449
Si      -0.74259235       4.13722550       3.10139226
Si      -2.38514515      -1.01071525       8.11387761
22
Lattice="5.040681364286968 -0.7325821256681585 -2.0949050727438117 -1.703591617770958 10.289954938810869 -0.14540568141134266 -5.32857733544227 -2.941445654973099 11.76765869387306" Properties=species:S:1:pos:R:3 unique_starting_index=18 config_type=initial n_minim_iter=9 stress="-0.009691808743978556 0.00611866254225904 0.0019428344134405763 0.00611866254225904 0.01393152597585114 0.0035623534282191427 0.0019428344134405763 0.0035623534282191427 0.0028572424524114437" pbc="T T T"
Si       1.42537589       8.25995226       0.52108256
Si      -2.25652780      -0.89391141       5.87321948
Si      -4.34653140      -0.99005286      11.06920604
Si      -0.91919496      -0.64459106       9.53110489
Si      -5.33343077       2.01235076      11.34021167
Si       4.05224613       1.81880149      -0.25042007
Si       2.65808209       0.26927502      -0.05700265
Si      -2.06225501       3.46616555       8.86583994
Si      -2.67319278      -1.48780738      10.08063210
Si      -4.05933250       2.75545092       7.02894166
Si      -0.68131792       2.25093657       3.81419413
Si      -2.96989826       4.44324754       7.02057569
Si      -3.95523713      -1.24892483       6.87966154
Si       0.00192137       6.88863844       0.11986420
Si       0.02751976       3.79497520       4.92749775
Si       1.58520847       6.65902710      -1.08734124
Si      -0.84283116      -1.47158894       4.52169470
Si       0.78541999      -2.28479995       6.74628346
Si       1.01639372       3.18733424       3.29001043
Si      -3.99915728       3.92852985       8.66043256
Si      -0.73972160       4.13508522       3.10302199
Si      -2.38692443      -1.01901562       8.12182493
22
Lattice="5.0506474562129 -0.73114818234604 -2.095305214675501 -1.7162438795443264 10.264788885563608 -0.16584740347010826 -5.338156463170933 -2.952478383037545 11.778118292301764" Properties=species:S:1:pos:R:3 unique_starting_index=18 config_type=initial n_minim_iter=10 stress="-8.04593398033284e-05 -0.001330955854198555 0.0003508181292135908 -0.001330955854198555 -0.0008508962756510514 -0.0014686426222372008 0.0003508181292135908 -0.0014686426222372008 -0.0009341009410455005" pbc="T T T"
Si       1.42181700       8.23413836       0.50845031
Si      -2.26578662      -0.90297451       5.86881716
Si      -4.35505475      -1.00476171      11.07339066
Si      -0.92032798      -0.66137722       9.53736455
Si      -5.34713643       1.98906643      11.33873358
Si       4.05363843       1.81180448      -0.25563249
Si       2.67151042       0.28060002      -0.05201639
Si      -2.07552918       3.43837609       8.86433376
Si      -2.67690743      -1.50269916      10.08535224
Si      -4.07192818       2.73230995       7.02678355
Si      -0.68738905       2.23394173       3.81079082
Si      -2.98409016       4.41783739       7.01723759
Si      -3.96307413      -1.25604183       6.88050971
Si      -0.00627801       6.87576563       0.10041721
Si       0.02141955       3.77162724       4.92305818
Si       1.58027750       6.64360743      -1.10458251
Si      -0.84279083      -1.47629573       4.53334712
Si       0.79476198      -2.28833242       6.74826174
Si       1.01355594       3.16940062       3.28732308
Si      -4.01203244       3.90533450       8.65334791
Si      -0.74503200       4.11534411       3.09786900
Si      -2.39512758      -1.03129913       8.12685591
22
Lattice="5.05843534567999 -0.7291657655564278 -2.0972241510269396 -1.722329912477961 10.260404440078837 -0.18246136813470581 -5.348901320710731 -2.968611172141488 11.79133873781616" Properties=species:S:1:pos:R:3 unique_starting_index=18 config_type=initial n_minim_iter=11 stress="0.0003005787886492714 -0.0024326595408241383 0.0008869546984940611 -0.0024326595408241383 0.0018125457140494754 -0.0011471465373558034 0.0008869546984940611 -0.0011471465373558034 0.0012343910747159037" pbc="T T T"
Si       1.42421825       8.22707598       0.50146615
Si      -2.27853011      -0.91355811       5.86384122
Si      -4.35976780      -1.02088535      11.07760127
Si      -0.92273179      -0.67551200       9.54621085
Si      -5.35939874       1.97204664      11.34201190
Si       4.05397153       1.80937222      -0.25843596
Si       2.68831829       0.29973270      -0.04360731
Si      -2.08791582       3.41874911       8.86745159
Si      -2.68332501      -1.51785063      10.09351039
Si      -4.08339145       2.71379503       7.02623013
Si      -0.69144457       2.22002112       3.80576322
Si      -2.99446112       4.40198654       7.01737960
Si      -3.96837891      -1.26549941       6.88152445
Si      -0.01188943       6.87632350       0.08090908
Si       0.01701421       3.75767331       4.92211038
Si       1.57806357       6.64348278      -1.12322715
Si      -0.84329089      -1.48364845       4.54693635
Si       0.80200563      -2.29259985       6.75004393
Si       1.00796227       3.15785722       3.28750512
Si      -4.02537511       3.89142519       8.65564402
Si      -0.74755958       4.10635553       3.09605613
Si      -2.40536153      -1.04419199       8.13263304
22
Lattice="5.06447329000851 -0.724738149718053 -2.099715708975452 -1.71975971294925 10.259410953255422 -0.19295058179541855 -5.362289546151845 -2.983709246393303 11.800006403733502" Properties=species:S:1:pos:R:3 unique_starting_index=18 config_type=initial n_minim_iter=12 stress="0.0008607505654280457 -0.003438510121044181 0.0020226937563989867 -0.003438510121044181 0.00040734064886371727 -0.0007247752227923565 0.0020226937563989867 -0.0007247752227923565 0.0020405460361756643" pbc="T T T"
Si       1.43154080       8.22533343       0.49780089
Si      -2.28912558      -0.92167165       5.85918847
Si      -4.36897947      -1.03341096      11.08020620
Si      -0.92837615      -0.68692234       9.55050662
Si      -5.37072131       1.95770544      11.34464103
Si       4.05774380       1.81022209      -0.26146681
Si       2.70137736       0.31528082      -0.03582485
Si      -2.09966514       3.40576979       8.86827874
Si      -2.68818117      -1.52916077      10.09686669
Si      -4.09241495       2.70376740       7.02641260
Si      -0.69288472       2.20911720       3.80074017
Si      -3.00142730       4.38847222       7.01863570
Si      -3.97702634      -1.27532703       6.88381871
Si      -0.00786155       6.87812122       0.06622713
Si       0.01506019       3.74963897       4.92211398
Si       1.57919360       6.64693465      -1.13522375
Si      -0.84473876      -1.49058374       4.55431538
Si       0.80033553      -2.29559271       6.74848610
Si       1.00539960       3.14933588       3.28533323
Si      -4.03446361       3.87906455       8.65711335
Si      -0.74858897       4.10453293       3.09567154
Si      -2.41455147      -1.05402385       8.13565583
22
Lattice="5.070274225556422 -0.7161676334222855 -2.103879677071673 -1.7058096170618298 10.248947208992657 -0.19336604108735078 -5.382762456879878 -2.991773248561426 11.803681602962063" Properties=species:S:1:pos:R:3 unique_starting_index=18 config_type=initial n_minim_iter=13 stress="0.0022956366825663222 -0.0013295290954600109 0.0018422748641426397 -0.0013295290954600109 -0.00037563992226413836 0.0008857079341829213 0.0018422748641426397 0.0008857079341829213 0.0026430580130317907" pbc="T T T"
Si       1.44561668       8.21847629       0.50043225
Si      -2.30258965      -0.92550595       5.85563553
Si      -4.38168356      -1.03944997      11.07841454
Si      -0.93842715      -0.69077093       9.54980434
Si      -5.38431453       1.94374166      11.34793632
Si       4.06914203       1.81702881      -0.26789388
Si       2.71066635       0.32866411      -0.02955637
Si      -2.10560908       3.39618806       8.86938306
Si      -2.70196968      -1.53271253      10.09682890
Si      -4.10077321       2.69573693       7.02839407
Si      -0.69185236       2.20027414       3.79956564
Si      -3.00590947       4.37386339       7.02413560
Si      -3.98775437      -1.28261860       6.88388862
Si       0.00331888       6.87597154       0.06126593
Si       0.01487525       3.74465475       4.92134494
Si       1.59026506       6.64553891      -1.14065776
Si      -0.84948596      -1.49409953       4.55509683
Si       0.79041169      -2.29188728       6.74611741
Si       1.00440297       3.14343641       3.28264192
Si      -4.04547455       3.86784887       8.65858677
Si      -0.74584783       4.10361852       3.09907042
Si      -2.42466036      -1.05730098       8.13587451
22
Lattice="5.078552771914152 -0.7067231544364124 -2.107877495275256 -1.69254585064427 10.235082681140542 -0.19648365360863718 -5.4090929113558595 -3.002660849162562 11.800831989083788" Properties=species:S:1:pos:R:3 unique_starting_index=18 config_type=initial n_minim_iter=14 stress="0.006325127387789206 0.0002650825747168774 -0.00019529278043569357 0.0002650825747168774 0.0005384276286142214 0.001495241435119372 -0.00019529278043569357 0.001495241435119372 -0.0007825597201170094" pbc="T T T"
Si       1.45840934       8.20667393       0.50134938
Si      -2.32054203      -0.93053233       5.84841265
Si      -4.40090778      -1.04614779      11.06898629
Si      -0.95280938      -0.69941855       9.54068968
Si      -5.40475926       1.92689392      11.34566724
Si       4.08954904       1.82745699      -0.27722286
Si       2.72048681       0.34369840      -0.02265480
Si      -2.12014006       3.38370021       8.86188430
Si      -2.71832928      -1.53971572      10.08977574
Si      -4.11285894       2.67821901       7.02547724
Si      -0.69282755       2.18945733       3.79291675
Si      -3.01298707       4.35499629       7.02431962
Si      -3.99822789      -1.29319550       6.88186249
Si       0.01457781       6.86887050       0.05453368
Si       0.01030921       3.73978272       4.91273754
Si       1.60366932       6.64200514      -1.14808495
Si      -0.85690801      -1.50021278       4.55065559
Si       0.77545775      -2.28994115       6.73887091
Si       1.00168110       3.13519471       3.27576982
Si      -4.05811574       3.85155164       8.65737194
Si      -0.74633656       4.10296772       3.09822929
Si      -2.43624017      -1.06161471       8.13062946
22
Lattice="5.080063312499274 -0.6978455197098704 -2.1155483710350698 -1.6777615590492796 10.223253817168679 -0.19969770425860447 -5.43006259413571 -3.0139075916995823 11.813650395308517" Properties=species:S:1:pos:R:3 unique_starting_index=18 config_type=initial n_minim_iter=15 stress="0.006270026025351652 0.0016274756326845573 -0.0016816658668318838 0.0016274756326845573 0.0010311232480251845 0.0003465327762364611 -0.0016816658668318838 0.0003465327762364611 0.0004775552324916459" pbc="T T T"
Si       1.46751265       8.19572016       0.50333785
Si      -2.33404213      -0.93514342       5.84592868
Si      -4.41520691      -1.05180118      11.07278527
Si      -0.96877887      -0.70903248       9.54227534
Si      -5.42089972       1.90795769      11.35912799
Si       4.10778882       1.83887988      -0.28592682
Si       2.72791758       0.36303531      -0.01744965
Si      -2.13213757       3.37175592       8.86573107
Si      -2.73380768      -1.54821579      10.09727599
Si      -4.11957906       2.66030563       7.03438532
Si      -0.69653738       2.18076470       3.78610824
Si      -3.01915166       4.33533145       7.03147758
Si      -4.00698157      -1.30560561       6.89241862
Si       0.02322141       6.86408472       0.04765660
Si       0.00751791       3.73345854       4.91489506
Si       1.61499877       6.63918629      -1.15413526
Si      -0.86312051      -1.50832171       4.55235156
Si       0.75855707      -2.28847916       6.73917870
Si       0.99546808       3.12878455       3.27543585
Si      -4.07074598       3.83588467       8.66522454
Si      -0.74936348       4.10434023       3.09438281
Si      -2.44464897      -1.06532896       8.13688418
22
Lattice="5.082350150648431 -0.6897966424724035 -2.129957820107305 -1.661162475052781 10.222703505743597 -0.19828298880743325 -5.460256875823235 -3.0253448040193405 11.842948097558397" Properties=species:S:1:pos:R:3 unique_starting_index=18 config_type=initial n_minim_iter=16 stress="0.00014541083297467364 0.00011427732766010454 -0.0028504590161437166 0.00011427732766010454 0.00046712029887173624 -0.0013126243714865348 -0.0028504590161437166 -0.0013126243714865348 0.0023544149283726266" pbc="T T T"
Si       1.47733101       8.19382991       0.51232817
Si      -2.35740756      -0.94036695       5.84588039
Si      -4.43855764      -1.05164247      11.08972750
Si      -0.99414521      -0.71766398       9.55439620
Si      -5.44680644       1.89327950      11.39287878
Si       4.13028435       1.85287253      -0.30608870
Si       2.74498560       0.40055260      -0.01037151
Si      -2.15187612       3.36585580       8.88196634
Si      -2.75222787      -1.55704187      10.11532243
Si      -4.13400688       2.64665614       7.05742586
Si      -0.70698311       2.17446682       3.78554158
Si      -3.03225708       4.31767170       7.04981352
Si      -4.01434593      -1.32079969       6.91065329
Si       0.03072327       6.86426641       0.03804996
Si      -0.00136171       3.72912657       4.91627112
Si       1.62583688       6.64402818      -1.15449023
Si      -0.87272228      -1.52103946       4.56310554
Si       0.73866432      -2.28535991       6.74603138
Si       0.98356758       3.12913844       3.28561567
Si      -4.09407860       3.82375731       8.68648419
Si      -0.75196036       4.11413720       3.09795679
Si      -2.45779160      -1.06646492       8.15666976
22
Lattice="5.0875330361586855 -0.6867814665846884 -2.1374761809348892 -1.655330304679979 10.216201917500463 -0.1930151126426326 -5.479198691201501 -3.02349072181134 11.856251795325793" Properties=species:S:1:pos:R:3 unique_starting_index=18 config_type=initial n_minim_iter=17 stress="-0.002326353036989926 -0.001139143277490529 -0.0028980184761275628 -0.001139143277490529 -0.0014678814614560557 -0.0012895476232881382 -0.0028980184761275628 -0.0012895476232881382 0.0043080786551279015" pbc="T T T"
Si       1.48073970       8.18719467       0.52027733
Si      -2.37173254      -0.94033096       5.84283666
Si      -4.44913113      -1.04602855      11.09467617
Si      -1.00583647      -0.71499133       9.55996832
Si      -5.46486691       1.88893700      11.41164420
Si       4.14620605       1.85876293      -0.31577660
Si       2.75878821       0.42341610      -0.00438990
Si      -2.16779613       3.36574531       8.89003184
Si      -2.76751409      -1.55474841      10.12351864
Si      -4.14802491       2.64208392       7.07038064
Si      -0.71433482       2.17339496       3.78620531
Si      -3.04211237       4.30871039       7.06426428
Si      -4.02087021      -1.32546868       6.91981413
Si       0.03326886       6.85978167       0.03734699
Si      -0.01094755       3.72587873       4.91940413
Si       1.63277735       6.64160546      -1.15146640
Si      -0.87639693      -1.52641764       4.57155680
Si       0.73326852      -2.27865689       6.74732726
Si       0.98154853       3.12703786       3.28874863
Si      -4.10686879       3.81750431       8.69790714
Si      -0.75502763       4.11793032       3.10068724
Si      -2.46658890      -1.06251987       8.16715074
22
Lattice="5.092141658309376 -0.6787196433926092 -2.1426740173961556 -1.6420120686130446 10.218301646473908 -0.1979773583475226 -5.498687619323541 -3.0397108563098323 11.867266265556417" Properties=species:S:1:pos:R:3 unique_starting_index=18 config_type=initial n_minim_iter=18 stress="-0.0038247998455175377 -0.0016721456354680609 0.001148844423850887 -0.0016721456354680609 -0.0007014886928234585 -0.0018905333389466516 0.001148844423850887 -0.0018905333389466516 0.005264889624236304" pbc="T T T"
Si       1.48440425       8.18523088       0.52092041
Si      -2.39037600      -0.95054088       5.83226373
Si      -4.46129457      -1.04998010      11.09456399
Si      -1.01050674      -0.72147997       9.56043538
Si      -5.48211570       1.86838486      11.42731022
Si       4.17461365       1.87578893      -0.32795156
Si       2.77855254       0.45866280       0.01031795
Si      -2.17777340       3.35919655       8.88798969
Si      -2.77649708      -1.56347323      10.12520678
Si      -4.16856510       2.62709914       7.07615658
Si      -0.71822229       2.17863473       3.77883003
Si      -3.04887711       4.29240217       7.07853681
Si      -4.02403151      -1.34433274       6.92702335
Si       0.04039578       6.86026156       0.03045793
Si      -0.02523890       3.71813596       4.91759707
Si       1.64524856       6.64767390      -1.15212931
Si      -0.87539079      -1.54536022       4.58814079
Si       0.73107740      -2.27892312       6.74556667
Si       0.97740544       3.12356557       3.28580492
Si      -4.12227558       3.80147212       8.70283935
Si      -0.75213304       4.12040588       3.09230654
Si      -2.47526393      -1.06804109       8.17663581
22
Lattice="5.0938466978182095 -0.6710973082870817 -2.1470994122879823 -1.6234997803994489 10.239650229605976 -0.19744082915383276 -5.519200000449273 -3.058194927267462 11.864266426650929" Properties=species:S:1:pos:R:3 unique_starting_index=18 config_type=initial n_minim_iter=19 stress="-0.0014540864299725403 0.0018305033583279355 0.0027971984858042895 0.0018305033583279355 0.00363991734617308 -0.00334339882185404 0.0027971984858042895 -0.00334339882185404 0.005007417474952388" pbc="T T T"
Si       1.48964029       8.20113146       0.52046778
Si      -2.40524159      -0.96060894       5.82015070
Si      -4.47274356      -1.05626925      11.08392276
Si      -1.01868234      -0.72513493       9.55142946
Si      -5.49595117       1.86001170      11.43018822
Si       4.19719518       1.89753182      -0.34257516
Si       2.78708197       0.48171351       0.01810779
Si      -2.18502790       3.36435580       8.87629798
Si      -2.78488015      -1.56961197      10.12385387
Si      -4.18092924       2.62429520       7.07172039
Si      -0.72580413       2.18974020       3.77171021
Si      -3.05963447       4.28407029       7.08400356
Si      -4.03004754      -1.36193506       6.92295958
Si       0.05127048       6.87201879       0.02953563
Si      -0.03446365       3.72242947       4.91267218
Si       1.65956253       6.66625084      -1.15189832
Si      -0.87822936      -1.56281512       4.59661771
Si       0.72114212      -2.28332897       6.73712932
Si       0.98093022       3.13221160       3.28415721
Si      -4.13292649       3.79828523       8.70403410
Si      -0.74872707       4.13111333       3.08105406
Si      -2.48516113      -1.07319348       8.17385125
22
Lattice="5.09890350382063 -0.670567513246784 -2.1568667562031734 -1.6164250642368239 10.248984581432802 -0.18280779659246177 -5.5444711986511175 -3.0519988393204516 11.869572124283566" Properties=species:S:1:pos:R:3 unique_starting_index=18 config_type=initial n_minim_iter=20 stress="0.0007458374083138338 0.0014343639449096422 0.0025178194808250006 0.0014343639449096422 0.0047670485575282175 -0.002037032399733626 0.0025178194808250006 -0.002037032399733626 0.0035572411902506837" pbc="T T T"
Si       1.48819358       8.20576866       0.53083437
Si      -2.41700908      -0.95844233       5.81384633
Si      -4.48953003      -1.04598497      11.08455087
Si      -1.03218105      -0.71400664       9.54854419
Si      -5.51705432       1.87159604      11.44417217
Si       4.21045429       1.90562034      -0.35527090
Si       2.79347390       0.49524942       0.02101735
Si      -2.20218958       3.37912724       8.87683269
Si      -2.79967895      -1.55656146      10.13117367
Si      -4.19711086       2.62854780       7.08432723
Si      -0.73600222       2.20374966       3.76972209
Si      -3.07459106       4.28807470       7.10140034
Si      -4.04269071      -1.36525682       6.92358180
Si       0.05826587       6.87749827       0.03626494
Si      -0.04609097       3.73205345       4.91578224
Si       1.66421270       6.67268854      -1.14522920
Si      -0.89034852      -1.56715853       4.60292770
Si       0.71142707      -2.27790623       6.73280659
Si       0.97366933       3.13930365       3.29061549
Si      -4.15338870       3.80303365       8.71621579
Si      -0.74981363       4.14086020       3.08402829
Si      -2.49806136      -1.06475376       8.17614345
22
Lattice="5.099714956488821 -0.6628162679058467 -2.1804328023305284 -1.5786684773386155 10.24348248685142 -0.12894901487617616 -5.593755457554094 -3.0166659526193014 11.883400108540629" Properties=species:S:1:pos:R:3 unique_starting_index=18 config_type=initial n_minim_iter=21 stress="0.007450056080746995 0.0027978279175666764 0.003618684251770774 0.0027978279175666764 -0.00040131132128169895 0.002769668400025397 0.003618684251770774 0.002769668400025397 -0.0008896647100895399" pbc="T T T"
Si       1.50107892       8.20221058       0.57935927
Si      -2.44785457      -0.94683245       5.80503011
Si      -4.52151894      -1.00348644      11.09310611
Si      -1.05219557      -0.67028478       9.54169238
Si      -5.54535279       1.90861015      11.48595375
Si       4.23677600       1.92644788      -0.37990199
Si       2.80807844       0.53567987       0.03363782
Si      -2.22678449       3.42037652       8.88864327
Si      -2.82436337      -1.50346351      10.14621599
Si      -4.22250960       2.63960448       7.12584902
Si      -0.75794066       2.23414313       3.77691580
Si      -3.09020171       4.29590136       7.15878814
Si      -4.05663985      -1.36382389       6.92694813
Si       0.07751174       6.87478329       0.06384635
Si      -0.05915446       3.75387512       4.93881532
Si       1.68394701       6.67196508      -1.11962918
Si      -0.92046652      -1.56783474       4.61772327
Si       0.69476918      -2.24348173       6.71621480
Si       0.97062035       3.15361194       3.31911347
Si      -4.19010921       3.80987409       8.76035475
Si      -0.75099444       4.16502298       3.09822443
Si      -2.52474913      -1.03202164       8.18271968
