20
Lattice="9.97457683620021 -3.552713678800502e-15 4.9694537745777915e-14 4.987288418100112 8.638236932149194 -1.333395148495411e-13 4.987288418100075 2.879412310716517 6.651062645103407" Properties=species:S:1:pos:R:3 unique_starting_index=8 config_type=initial n_minim_iter=1 energy=-3246.5849557620395 free_energy=-3246.5849557620395 pbc="T T T"
Si      12.29495323       4.83582430       2.47298567
Si       9.61373037       8.22982968       2.47298567
Si       8.01504692       4.21081989       2.47298567
Si       7.26504329       5.01949426       4.55542057
Si      11.96962249       3.78196492       4.55542057
Si      10.68906474       8.47501469       4.55542057
Si       9.37924135       2.92381124       5.88507509
Si      12.72743819       6.66075566       5.88507509
Si       7.81705098       7.69190697       5.88507509
Si       6.01896127       7.00440398       0.08769103
Si      10.87368126       1.71037137       0.08769103
Si      13.03108799       8.56169852       0.08769103
Si      14.36070338       7.60835088       5.15164870
Si      16.15435368       8.63255850       5.15164870
Si      14.37053871       9.67380141       5.15164870
Si      10.30703533       1.37838436       2.11128870
Si      13.60192014       8.23696225       2.11128870
Si       6.01477505       7.66112726       2.11128870
Si      14.96186526       8.63823693       0.69662544
Si      14.96186526       8.63823693       3.52968407
20
Lattice="9.940470244060172 -1.5096388394734757e-16 4.9848530321415794e-14 4.970235122030093 8.608699756919414 -1.3274996555367483e-13 4.970235122030054 2.869566585639923 6.640628031573306" Properties=species:S:1:pos:R:3 unique_starting_index=8 config_type=initial n_minim_iter=2 stress="-0.01149721030625575 3.1962436915642987e-15 -1.6773423535355126e-15 3.1962436915642987e-15 -0.011497210306251024 -1.3805552032217326e-15 -1.6773423535355126e-15 -1.3805552032217326e-15 -0.014917955254518021" pbc="T T T"
Si      12.25231042       4.81638539       2.46911645
Si       9.58367319       8.20261938       2.46911645
Si       7.98542714       4.19839475       2.46911645
Si       7.24093481       5.00274862       4.55177643
Si      11.92796569       3.76945918       4.55177643
Si      10.65251024       8.44519171       4.55177643
Si       9.34954851       2.91489050       5.87597965
Si      12.68179702       6.63950127       5.87597965
Si       7.79006521       7.66300775       5.87597965
Si       5.99862753       6.98055682       0.08513441
Si      10.83628719       1.70468542       0.08513441
Si      12.98649603       8.53215727       0.08513441
Si      14.31089982       7.58305746       5.14496865
Si      16.09884043       8.60207406       5.14496865
Si      14.32237586       9.64096775       5.14496865
Si      10.27184139       1.37444418       2.10639512
Si      13.55471622       8.20845349       2.10639512
Si       5.99485313       7.63450184       2.10639512
Si      14.91070537       8.60869976       0.69054140
Si      14.91070537       8.60869976       3.52597984
20
Lattice="9.891539407288674 -2.3832075452897573e-15 4.965017755107285e-14 4.945769703644345 8.566324409246867 -1.3216773083114642e-13 4.945769703644306 2.8554414697490733 6.664003143608677" Properties=species:S:1:pos:R:3 unique_starting_index=8 config_type=initial n_minim_iter=3 stress="-0.009318814127089266 1.840709571301937e-15 -1.805103297345622e-15 1.840709571301937e-15 -0.00931881412708782 -1.407086280695957e-15 -1.805103297345622e-15 -1.407086280695957e-15 0.012716546566857136" pbc="T T T"
Si      12.18970552       4.78147257       2.47780967
Si       9.54734935       8.16585836       2.47780967
Si       7.93756336       4.18531790       2.47780967
Si       7.20822587       4.97974886       4.58152568
Si      11.86637687       3.75263228       4.58152568
Si      10.60001550       8.40026767       4.58152568
Si       9.31275248       2.90528060       5.89737907
Si      12.61065577       6.61243992       5.89737907
Si       7.75120998       7.61492830       5.89737907
Si       5.97039343       6.94605690       0.07572657
Si      10.78242038       1.69748393       0.07572657
Si      12.92180443       8.48910799       0.07572657
Si      14.23775379       7.54799031       5.16904842
Si      16.01898998       8.55626132       5.16904842
Si      14.25518357       9.59472161       5.16904842
Si      10.22168986       1.37157158       2.10783453
Si      13.48441806       8.16645729       2.10783453
Si       5.96851032       7.59461994       2.10783453
Si      14.83730911       8.56632441       0.67249586
Si      14.83730911       8.56632441       3.54467323
20
Lattice="9.915786935944713 -1.021630854815257e-14 5.023631723973049e-14 4.9578934679723705 8.587323385041982 -1.319391011867132e-13 4.9578934679723305 2.862441128347435 6.3161112122103695" Properties=species:S:1:pos:R:3 unique_starting_index=8 config_type=initial n_minim_iter=4 stress="-0.003921277438488599 2.123971203238712e-15 6.324283585045803e-16 2.123971203238712e-15 -0.003921277438488573 -1.3520459314129289e-15 6.324283585045803e-16 -1.3520459314129289e-15 -0.018050621280841055" pbc="T T T"
Si      12.19436159       4.66689931       2.34850498
Si       9.69273972       8.22717726       2.34850498
Si       7.86025951       4.28057019       2.34850498
Si       7.26151100       5.01038734       4.48938258
Si      11.86169566       3.78345932       4.48938258
Si      10.62415416       8.38080011       4.48938258
Si       9.44082816       2.97923076       5.60096639
Si      12.53107028       6.68638164       5.60096639
Si       7.77546238       7.50903437       5.60096639
Si       6.00894308       6.94608941      -0.03806676
Si      10.81161245       1.73085265      -0.03806676
Si      12.92680528       8.49770471      -0.03806676
Si      14.24592679       7.58639275       4.96445980
Si      16.05438858       8.54413812       4.96445980
Si      14.32072586       9.63143929       4.96445980
Si      10.24302285       1.38402055       1.92319121
Si      13.51146550       8.17870772       1.92319121
Si       5.99287247       7.61191850       1.92319121
Si      14.87368041       8.58732339       0.50447822
Si      14.87368041       8.58732339       3.37446899
20
Lattice="9.794545126205328 -1.58181486809305e-14 5.0457507663747636e-14 4.8972725631026846 8.482324897806876 -1.288431581155245e-13 4.897272563102645 2.8274416326023974 6.138244851435594" Properties=species:S:1:pos:R:3 unique_starting_index=8 config_type=initial n_minim_iter=5 stress="-0.0364651048673895 4.914944889672008e-15 1.731061748477259e-15 4.914944889672008e-15 -0.03646510486739727 -4.189965041712891e-15 1.731061748477259e-15 -4.189965041712891e-15 -0.03367671312814396" pbc="T T T"
Si      12.02100092       4.48454367       2.28155950
Si       9.69486106       8.16822033       2.28155950
Si       7.66777342       4.31188579       2.28155950
Si       7.20968662       4.96954712       4.50518764
Si      11.68049289       3.75899820       4.50518764
Si      10.49345588       8.23610447       4.50518764
Si       9.43159657       3.00864922       5.45334823
Si      12.26772532       6.66367761       5.45334823
Si       7.68431351       7.29232296       5.45334823
Si       5.95739893       6.84618620      -0.14201397
Si      10.68141962       1.73616571      -0.14201397
Si      12.74481684       8.38229788      -0.14201397
Si      14.04042802       7.50810158       4.89471845
Si      15.86121468       8.40531655       4.89471845
Si      14.17381038       9.53355657       4.89471845
Si      10.11005787       1.36305541       1.80346064
Si      13.35362071       8.07403924       1.80346064
Si       5.91995681       7.52755515       1.80346064
Si      14.69181769       8.48232490       0.36507571
Si      14.69181769       8.48232490       3.25164054
20
Lattice="9.812915431397304 -2.4118521716591244e-14 5.1626179058741666e-14 4.906457715698677 8.498234048778391 -1.2813641529731836e-13 4.906457715698637 2.832744682926231 6.063704854725774" Properties=species:S:1:pos:R:3 unique_starting_index=8 config_type=initial n_minim_iter=6 stress="-0.043897243789728924 5.850489805182265e-16 2.2938713524283514e-15 5.850489805182265e-16 -0.04389724378973428 -8.19089935153877e-15 2.2938713524283514e-15 -8.19089935153877e-15 -0.03209071971803301" pbc="T T T"
Si      12.02483998       4.39400965       2.25164326
Si       9.80808689       8.21681207       2.25164326
Si       7.60581943       4.38564637       2.25164326
Si       7.25966479       5.00110837       4.55247289
Si      11.66491158       3.78649994       4.55247289
Si      10.51416994       8.20885979       4.55247289
Si       9.53994988       3.06527845       5.39352164
Si      12.20124692       6.72919972       5.39352164
Si       7.69754951       7.20198993       5.39352164
Si       5.97788173       6.85537286      -0.21735027
Si      10.69996296       1.74931101      -0.21735027
Si      12.76090161       8.39178423      -0.21735027
Si      14.04004398       7.54169563       4.87151148
Si      15.88742431       8.38818694       4.87151148
Si      14.23065116       9.56481958       4.87151148
Si      10.11063024       1.33656829       1.74036338
Si      13.41301365       8.08777849       1.74036338
Si       5.91510241       7.57212132       1.74036338
Si      14.71937315       8.49823405       0.27645421
Si      14.71937315       8.49823405       3.22387748
20
Lattice="10.079889137343164 -2.8158181568817984e-14 5.297070695548297e-14 5.0399445686716104 8.72944006026998 -1.3060310777647945e-13 5.039944568671569 2.9098133534234254 6.017836296044905" Properties=species:S:1:pos:R:3 unique_starting_index=8 config_type=initial n_minim_iter=7 stress="0.001964653027646836 4.032955556082558e-16 -3.825540809813581e-15 4.032955556082558e-16 0.0019646530276443133 -4.845422424564132e-15 -3.825540809813581e-15 -4.845422424564132e-15 0.012176935227437074" pbc="T T T"
Si      12.33740073       4.43810631       2.23232160
Si      10.14756511       8.46544930       2.23232160
Si       7.75470158       4.55532452       2.23232160
Si       7.51638580       5.16156225       4.56055076
Si      11.93154135       3.92859992       4.56055076
Si      10.79174027       8.36871795       4.56055076
Si       9.87495077       3.17734910       5.35675894
Si      12.47063785       6.96328368       5.35675894
Si       7.89407879       7.31824734       5.35675894
Si       6.13844092       7.08135081      -0.24381825
Si      10.95792812       1.77537037      -0.24381825
Si      13.14329838       8.60215894      -0.24381825
Si      14.39173065       7.77104207       4.84221575
Si      16.31388225       8.57808331       4.84221575
Si      14.65388823       9.83919480       4.84221575
Si      10.35367281       1.30776654       1.72113044
Si      13.85038283       8.31266040       1.72113044
Si       6.03561178       7.83845318       1.72113044
Si      15.11983371       8.72944006       0.21365662
Si      15.11983371       8.72944006       3.20728830
20
Lattice="10.13299068798763 -2.8243243802913372e-14 5.3713663626301357e-14 5.0664953439938465 8.775427352108437 -1.3079075842733516e-13 5.066495343993804 2.925142450702911 6.047272441510312" Properties=species:S:1:pos:R:3 unique_starting_index=8 config_type=initial n_minim_iter=8 stress="0.0059841439138222045 2.982262585410638e-16 -3.578626157956528e-17 2.982262585410638e-16 0.005984143913819813 -7.451733519500804e-15 -3.578626157956528e-17 -7.451733519500804e-15 0.031788674350838396" pbc="T T T"
Si      12.39817020       4.42116754       2.24074884
Si      10.23805288       8.52654658       2.24074884
Si       7.76274900       4.60314058       2.24074884
Si       7.58283054       5.19851596       4.60380609
Si      11.97251923       3.96766590       4.60380609
Si      10.84362230       8.38467285       4.60380609
Si       9.96213432       3.21016491       5.38875008
Si      12.50482986       7.02237894       5.38875008
Si       7.93200790       7.31831086       5.38875008
Si       6.16874496       7.13541375      -0.25747598
Si      11.00215932       1.77458297      -0.25747598
Si      13.22806779       8.64085799      -0.25747598
Si      14.45511859       7.82822304       4.87458400
Si      16.39197275       8.60438839       4.87458400
Si      14.75136677       9.89367063       4.87458400
Si      10.39386469       1.28885588       1.70767187
Si      13.95286710       8.35692292       1.70767187
Si       6.05224029       7.90507591       1.70767187
Si      15.19948604       8.77542735       0.19819945
Si      15.19948604       8.77542735       3.24372671
20
Lattice="10.298530536516568 -2.8305513936683595e-14 5.424109617554214e-14 5.149265268258315 8.918789066273119 -1.322165878929612e-13 5.149265268258273 2.9729296887578047 5.914670186413495" Properties=species:S:1:pos:R:3 unique_starting_index=8 config_type=initial n_minim_iter=9 stress="-0.0031316785545977945 2.877112584367168e-15 -7.871845449118694e-15 2.877112584367168e-15 -0.003131678554597036 -1.2064979628692677e-14 -7.871845449118694e-15 -1.2064979628692677e-14 -0.0009366235131598036" pbc="T T T"
Si      12.59419715       4.41694930       2.18731319
Si      10.47477221       8.69842002       2.18731319
Si       7.82662227       4.72220882       2.18731319
Si       7.74922491       5.29781291       4.54487029
Si      12.13440806       4.06211918       4.54487029
Si      11.01195865       8.47764605       4.54487029
Si      10.18655723       3.29548399       5.28318015
Si      12.64980961       7.17407534       5.28318015
Si       8.05922478       7.36801881       5.28318015
Si       6.26685609       7.27147388      -0.27881925
Si      11.16635193       1.79151963      -0.27881925
Si      13.46238360       8.77458462      -0.27881925
Si      14.67269422       7.98940373       4.78435476
Si      16.64021791       8.71222407       4.78435476
Si      15.03047530      10.05473940       4.78435476
Si      10.54193384       1.27448797       1.64848960
Si      14.22235520       8.49233853       1.64848960
Si       6.13130258       8.07075164       1.64848960
Si      15.44779581       8.91878907       0.12271085
Si      15.44779581       8.91878907       3.18902700
20
Lattice="10.549439844438101 -2.7683810743659788e-14 5.519931142053506e-14 5.274719922219082 9.13608290097914 -1.3435050567307183e-13 5.274719922219041 3.045360966993143 5.717194121468066" Properties=species:S:1:pos:R:3 unique_starting_index=8 config_type=initial n_minim_iter=10 stress="-0.001813809294663416 4.2137975414302565e-15 -1.3632201245000618e-14 4.2137975414302565e-15 -0.00181380929465849 -9.210927322042433e-15 -1.3632201245000618e-14 -9.210927322042433e-15 -0.019596935157925433" pbc="T T T"
Si      12.90313466       4.41521813       2.10300860
Si      10.82362130       8.96683333       2.10300860
Si       7.92156359       4.89011434       2.10300860
Si       7.98845166       5.42704353       4.43307477
Si      12.40469630       4.20468031       4.43307477
Si      11.25517158       8.64044197       4.43307477
Si      10.49722903       3.41376218       5.13940366
Si      12.89386041       7.38398592       5.13940366
Si       8.25723011       7.47441771       5.13940366
Si       6.40416001       7.46720390      -0.29818113
Si      11.43001142       1.81256331      -0.29818113
Si      13.81414811       8.99239860      -0.29818113
Si      14.97779005       8.22302233       4.66347192
Si      17.03807828       8.85963550       4.66347192
Si      15.45661098      10.32559087       4.66347192
Si      10.77015753       1.25653567       1.55349268
Si      14.62560912       8.69896219       1.55349268
Si       6.25255289       8.31666795       1.55349268
Si      15.82415977       9.13608290       0.01546291
Si      15.82415977       9.13608290       3.09116750
20
Lattice="10.828997140602567 -2.321526916798222e-14 5.859318419285622e-14 5.41449857030131 9.378186621270855 -1.3642418941167663e-13 5.4144985703012765 3.1260622070903787 5.49927141821506" Properties=species:S:1:pos:R:3 unique_starting_index=8 config_type=initial n_minim_iter=11 stress="0.015651591123457972 7.03877466027265e-16 -2.900438011592549e-15 7.03877466027265e-16 0.015651591123453823 -1.0690579872947291e-14 -2.900438011592549e-15 -1.0690579872947291e-14 -0.023612484895659404" pbc="T T T"
Si      13.26621695       4.39910757       2.00011797
Si      11.21514690       9.28932710       2.00011797
Si       8.00562758       5.06793857       2.00011797
Si       8.25848971       5.55041700       4.28633175
Si      12.72194731       4.37685338       4.28633175
Si      11.50655442       8.82910286       4.28633175
Si      10.82372239       3.54589379       5.00156747
Si      13.17529899       7.60067166       5.00156747
Si       8.48797005       7.60980780       5.00156747
Si       6.54434147       7.66623018      -0.31449677
Si      11.74667346       1.83445087      -0.31449677
Si      14.19597650       9.25569219      -0.31449677
Si      15.28998193       8.48315363       4.53119660
Si      17.49537392       8.99993596       4.53119660
Si      15.94513130      10.65147028       4.53119660
Si      11.01887535       1.22066896       1.45309384
Si      15.09142628       8.93229149       1.45309384
Si       6.37668980       8.60341279       1.45309384
Si      16.24349571       9.37818662      -0.11741865
Si      16.24349571       9.37818662       3.00308603
20
Lattice="10.867706638798838 -1.6432333312601462e-14 6.161927171899691e-14 5.433853319399438 9.411710030076584 -1.3529327778679326e-13 5.4338533193994145 3.13723667669229 5.472146808542608" Properties=species:S:1:pos:R:3 unique_starting_index=8 config_type=initial n_minim_iter=12 stress="0.028396931837163894 -4.127857025904185e-16 -3.0494978573986313e-15 -4.127857025904185e-16 0.028396931837157687 -1.305768528836233e-14 -3.0494978573986313e-15 -1.305768528836233e-14 0.007699049673156342" pbc="T T T"
Si      13.33920888       4.35481167       1.97310940
Si      11.29443131       9.37468792       1.97310940
Si       7.96947974       5.09392047       1.97310940
Si       8.31251592       5.53930037       4.24977111
Si      12.78198048       4.42919977       4.24977111
Si      11.50862353       8.85491992       4.24977111
Si      10.85769944       3.57479078       5.02305725
Si      13.21070394       7.61564815       5.02305725
Si       8.53471655       7.63298114       5.02305725
Si       6.54491511       7.67338662      -0.32574292
Si      11.81760798       1.83136944      -0.32574292
Si      14.24059684       9.31866400      -0.32574292
Si      15.30287911       8.54361828       4.53049306
Si      17.55268990       8.98087292       4.53049306
Si      16.04911088      10.71063889       4.53049306
Si      11.03010280       1.17957496       1.43739875
Si      15.19882001       8.96256175       1.43739875
Si       6.37419712       8.68128336       1.43739875
Si      16.30155996       9.41171003      -0.18265931
Si      16.30155996       9.41171003       3.01233794
20
Lattice="10.640222399720734 -2.6170960710579056e-15 6.7442624077436e-14 5.320111199860376 9.21470290007439 -1.2908623387150927e-13 5.3201111998603645 3.0715676333582267 5.515346791860412" Properties=species:S:1:pos:R:3 unique_starting_index=8 config_type=initial n_minim_iter=13 stress="0.017958111001528134 1.917401237747516e-15 -6.380073518133255e-15 1.917401237747516e-15 0.017958111001523024 -1.3231383280521315e-14 -6.380073518133255e-15 -1.3231383280521315e-14 -0.0032525267795193036" pbc="T T T"
Si      13.10615685       4.31078844       1.97217896
Si      10.99411408       9.19487055       1.97217896
Si       7.82039629       4.92374681       1.97217896
Si       8.10860722       5.36531683       4.19772777
Si      12.57964052       4.33960143       4.19772777
Si      11.23241947       8.72448755       4.19772777
Si      10.53155957       3.48021650       5.10772620
Si      13.00070912       7.38048988       5.10772620
Si       8.38839852       7.56869942       5.10772620
Si       6.37773494       7.46809532      -0.29438718
Si      11.62401707       1.78923282      -0.29438718
Si      13.91891520       9.17207766      -0.29438718
Si      14.98070131       8.36160793       4.56855967
Si      17.18895167       8.79286393       4.56855967
Si      15.71134783      10.48963684       4.56855967
Si      10.80616206       1.18428761       1.46495556
Si      14.85174062       8.76626705       1.46495556
Si       6.26276453       8.47885114       1.46495556
Si      15.96033360       9.21470290      -0.17536350
Si      15.96033360       9.21470290       3.04132822
20
Lattice="10.456761530573564 3.684929901451779e-15 7.067585174044436e-14 5.228380765286783 9.055821126792567 -1.240861687457744e-13 5.22838076528678 3.018607042264289 5.499607794323761" Properties=species:S:1:pos:R:3 unique_starting_index=8 config_type=initial n_minim_iter=14 stress="-0.015656424260470998 -3.0526005662155943e-15 -9.120074419694996e-15 -3.0526005662155943e-15 -0.01565642426047411 -1.207040832847064e-14 -9.120074419694996e-15 -1.207040832847064e-14 -0.011902412172933198" pbc="T T T"
Si      12.91932884       4.19525197       1.94448365
Si      10.82066387       9.09084099       1.94448365
Si       7.63029190       4.82554930       1.94448365
Si       8.00804657       5.24143821       4.15595945
Si      12.37028114       4.31445265       4.15595945
Si      10.99195690       8.55575139       4.15595945
Si      10.34172467       3.45828587       5.15173011
Si      12.74769732       7.22705335       5.15173011
Si       8.28086261       7.42630304       5.15173011
Si       6.23581352       7.31512318      -0.29675821
Si      11.46053380       1.74281133      -0.29675821
Si      13.67393729       9.05370774      -0.29675821
Si      14.68230397       8.23538561       4.59115464
Si      16.89707947       8.59755542       4.59115464
Si      15.47604346      10.33452236       4.59115464
Si      10.60867840       1.15380609       1.43589907
Si      14.60995849       8.61048195       1.43589907
Si       6.15164772       8.34735422       1.43589907
Si      15.68514230       9.05582113      -0.23832935
Si      15.68514230       9.05582113       3.05331152
20
Lattice="10.41396693075791 -3.9056169697323756e-16 7.34443336604403e-14 5.2069834653789595 9.018759916207419 -1.2085266372154958e-13 5.206983465378959 3.0062533054025695 5.438332943945878" Properties=species:S:1:pos:R:3 unique_starting_index=8 config_type=initial n_minim_iter=15 stress="-0.003703724514505959 -1.101489811908115e-15 -6.941749368923519e-15 -1.101489811908115e-15 -0.0037037245145176718 -1.787642947949503e-14 -6.941749368923519e-15 -1.787642947949503e-14 -0.0013514449573517318" pbc="T T T"
Si      12.88153424       4.12918347       1.91588898
Si      10.81118897       9.09114416       1.91588898
Si       7.54917759       4.81719221       1.91588898
Si       8.05614209       5.22926611       4.12431587
Si      12.27118553       4.36219065       4.12431587
Si      10.91457318       8.44606308       4.12431587
Si      10.35146327       3.48537046       5.11078156
Si      12.63378287       7.22194492       5.11078156
Si       8.25665467       7.33020445       5.11078156
Si       6.20441051       7.26292001      -0.31472810
Si      11.43585537       1.74171711      -0.31472810
Si      13.60163492       9.03288271      -0.31472810
Si      14.59206908       8.23152671       4.57777930
Si      16.81715501       8.52133916       4.57777930
Si      15.45362710      10.30341388       4.57777930
Si      10.53826382       1.16729465       1.38515751
Si      14.54789513       8.54275686       1.38515751
Si       6.15574184       8.32746833       1.38515751
Si      15.62095040       9.01875992      -0.27553252
Si      15.62095040       9.01875992       3.04133231
20
Lattice="10.422932876268732 -2.1684469212150838e-15 7.597258463407403e-14 5.211466438134369 9.026524652788734 -1.188157497496632e-13 5.211466438134371 3.0088415509296733 5.410871170285215" Properties=species:S:1:pos:R:3 unique_starting_index=8 config_type=initial n_minim_iter=16 stress="0.0012046612730153166 -9.132155815151367e-18 -8.591379458055599e-15 -9.132155815151367e-18 0.001204661273001722 -1.9163079092683708e-14 -8.591379458055599e-15 -1.9163079092683708e-14 0.015334952616617705" pbc="T T T"
Si      12.90431366       4.10810407       1.90241422
Si      10.83598644       9.12141141       1.90241422
Si       7.52849854       4.82353383       1.90241422
Si       8.10416140       5.22613307       4.10424241
Si      12.26782106       4.40534311       4.10424241
Si      10.89681619       8.42157313       4.10424241
Si      10.37360041       3.50772170       5.09797716
Si      12.62128945       7.22994063       5.09797716
Si       8.27390878       7.31538698       5.09797716
Si       6.19543221       7.25681621      -0.32452862
Si      11.46356246       1.73699358      -0.32452862
Si      13.60980396       9.05923952      -0.32452862
Si      14.58613692       8.25924317       4.57346229
Si      16.82301577       8.50234352       4.57346229
Si      15.49404526      10.31798726       4.57346229
Si      10.52503975       1.15972105       1.36449493
Si      14.57899800       8.53509127       1.36449493
Si       6.16476089       8.35823699       1.36449493
Si      15.63439932       9.02652465      -0.30102710
Si      15.63439932       9.02652465       3.04176767
20
Lattice="10.461977700591607 -1.5084860835573938e-15 8.309424788216355e-14 5.230988850295808 9.060338462538644 -1.1557971013562583e-13 5.230988850295817 3.0201128208463075 5.282614787017306" Properties=species:S:1:pos:R:3 unique_starting_index=8 config_type=initial n_minim_iter=17 stress="0.01684555390028276 -2.3066981037740417e-15 -8.648656957426076e-15 -2.3066981037740417e-15 0.016845553900263176 -2.6631937244528037e-14 -8.648656957426076e-15 -2.6631937244528037e-14 0.0299131783063009" pbc="T T T"
Si      12.99022037       4.08442276       1.85122732
Si      10.89163136       9.20764946       1.85122732
Si       7.50408139       4.82860471       1.85122732
Si       8.25368578       5.20649365       3.99926373
Si      12.28815675       4.54465474       3.99926373
Si      10.84409058       8.36952854       3.99926373
Si      10.42001679       3.57369385       5.00561861
Si      12.61903735       7.23715232       5.00561861
Si       8.34687897       7.30983075       5.00561861
Si       6.15783504       7.25226539      -0.34218969
Si      11.56439183       1.70670888      -0.34218969
Si      13.66370625       9.16170266      -0.34218969
Si      14.58838946       8.34349602       4.52001772
Si      16.86605887       8.46216787       4.52001772
Si      15.62445133      10.37535151       4.52001772
Si      10.49705414       1.16220019       1.29675547
Si      14.66893345       8.50961546       1.29675547
Si       6.21994552       8.44886128       1.29675547
Si      15.69296655       9.06033846      -0.35541581
Si      15.69296655       9.06033846       3.00447116
20
Lattice="10.491131065961413 -2.2943584932676815e-15 9.415431661443638e-14 5.245565532980709 9.085586017554705 -1.079844739642692e-13 5.245565532980729 3.028528672518327 5.1455523418712" Properties=species:S:1:pos:R:3 unique_starting_index=8 config_type=initial n_minim_iter=18 stress="0.030345606679818032 -5.3951166048344084e-15 -6.566741022268232e-15 -5.3951166048344084e-15 0.030345606679795665 -2.989070044122298e-14 -6.566741022268232e-15 -2.989070044122298e-14 0.03921625476108736" pbc="T T T"
Si      13.06773907       4.07736657       1.80580800
Si      10.91728958       9.27831072       1.80580800
Si       7.48836456       4.81549475       1.80580800
Si       8.43473466       5.16388143       3.88900886
Si      12.29284230       4.72275378       3.88900886
Si      10.74581624       8.28453683       3.88900886
Si      10.43650295       3.65811898       4.88932313
Si      12.59598670       7.20921719       4.88932313
Si       8.44090356       7.30383587       4.88932313
Si       6.08549970       7.24318543      -0.35880807
Si      11.66672971       1.64860462      -0.35880807
Si      13.72116380       9.27938199      -0.35880807
Si      14.57664789       8.43070144       4.46658937
Si      16.88386765       8.40839665       4.46658937
Si      15.74957428      10.41765997       4.46658937
Si      10.43789105       1.16491453       1.22256983
Si      14.75447104       8.45702155       1.22256983
Si       6.28103112       8.54923596       1.22256983
Si      15.73669660       9.08558602      -0.40666639
Si      15.73669660       9.08558602       2.96444967
20
Lattice="10.511782183820488 -4.9054379752663335e-15 1.0350193305650734e-13 5.255891091910246 9.103470410237207 -1.0299531800764897e-13 5.255891091910274 3.0344901367458252 5.058783917068294" Properties=species:S:1:pos:R:3 unique_starting_index=8 config_type=initial n_minim_iter=19 stress="0.02132600731495154 -8.232497211645933e-15 -1.1097675139775107e-14 -8.232497211645933e-15 0.021326007314932283 -2.151869359802033e-14 -1.1097675139775107e-14 -2.151869359802033e-14 0.031994954892754446" pbc="T T T"
Si      13.11188404       4.07460199       1.77671206
Si      10.93891352       9.31792367       1.77671206
Si       7.48454900       4.81441516       1.77671206
Si       8.52860313       5.14031170       3.82336764
Si      12.30762229       4.81583111       3.82336764
Si      10.69912114       8.25079801       3.82336764
Si      10.44562723       3.70975293       4.81294331
Si      12.58801048       7.19130207       4.81294331
Si       8.50170886       7.30588582       4.81294331
Si       6.05133609       7.24709221      -0.36345764
Si      11.72173037       1.61706468      -0.36345764
Si      13.76228010       9.34278394      -0.36345764
Si      14.57706823       8.47806461       4.42499602
Si      16.90459312       8.38507909       4.42499602
Si      15.82135849      10.44726753       4.42499602
Si      10.41937207       1.15749706       1.18013273
Si      14.81145648       8.44469237       1.18013273
Si       6.30451801       8.60475139       1.18013273
Si      15.76767328       9.10347041      -0.44447550
Si      15.76767328       9.10347041       2.93342972
20
Lattice="10.609209958167593 -7.995809334299922e-16 1.216205766348208e-13 5.304604979083799 9.187845337855983 -9.499155314005853e-14 5.30460497908384 3.0626151126187486 4.8865563882798595" Properties=species:S:1:pos:R:3 unique_starting_index=8 config_type=initial n_minim_iter=20 stress="0.004762280780854133 5.1438112545361656e-15 -1.588516907448741e-14 5.1438112545361656e-15 0.004762280780830116 -2.48597016925637e-14 -1.588516907448741e-14 -2.48597016925637e-14 0.007513478914496483" pbc="T T T"
Si      13.22588402       4.18970209       1.73993749
Si      10.97708947       9.35910050       1.73993749
Si       7.62465640       4.82688809       1.73993749
Si       8.69218766       5.12042419       3.71302514
Si      12.43790866       4.96744323       3.71302514
Si      10.69753356       8.28782325       3.71302514
Si      10.46929683       3.81646932       4.59689598
Si      12.67861212       7.15844235       4.59689598
Si       8.67972093       7.40077900       4.59689598
Si       6.02216205       7.32813333      -0.35299033
Si      11.86098927       1.55127866      -0.35299033
Si      13.94447856       9.49627870      -0.35299033
Si      14.69444879       8.57894153       4.30857564
Si      17.05082418       8.43629518       4.30857564
Si      15.99617185      10.54829931       4.30857564
Si      10.46277960       1.16179606       1.12948149
Si      14.98088523       8.48013490       1.12948149
Si       6.38396506       8.73375973       1.12948149
Si      15.91381494       9.18784534      -0.47679032
Si      15.91381494       9.18784534       2.84140996
20
Lattice="10.723338710205562 -3.177488158556911e-15 1.4424720573041076e-13 5.361669355102787 9.286683736423083 -8.591143231826129e-14 5.361669355102843 3.0955612454744466 4.774301727109128" Properties=species:S:1:pos:R:3 unique_starting_index=8 config_type=initial n_minim_iter=21 stress="-0.0010346899928268484 -9.183865680754479e-15 -3.557013267602662e-15 -9.183865680754479e-15 -0.00103468999281289 -1.4190345585982311e-14 -3.557013267602662e-15 -1.4190345585982311e-14 -0.01666750321618176" pbc="T T T"
Si      13.33416671       4.29179578       1.71841759
Si      11.06278990       9.40182921       1.71841759
Si       7.77305953       4.87974248       1.71841759
Si       8.79044626       5.15323673       3.65795807
Si      12.58862037       5.03613140       3.65795807
Si      10.79094951       8.38399934       3.65795807
Si      10.54857162       3.88531350       4.44172067
Si      12.80761143       7.19267425       4.44172067
Si       8.81383310       7.49537973       4.44172067
Si       6.06434772       7.42023219      -0.33618342
Si      11.98839399       1.54176308      -0.33618342
Si      14.11727444       9.61137220      -0.33618342
Si      14.84439091       8.66685879       4.21836422
Si      17.24210080       8.52219023       4.21836422
Si      16.16853250      10.67100219       4.21836422
Si      10.57676837       1.15415209       1.10125577
Si      15.15876821       8.58267405       1.10125577
Si       6.43447956       8.83654134       1.10125577
Si      16.08500807       9.28668374      -0.49981403
Si      16.08500807       9.28668374       2.76724595
