22
Lattice="5.09971495648882 -0.6628162679058465 -2.1804328023305284 -1.5786684773386155 10.24348248685142 -0.12894901487617633 -5.593755457554092 -3.0166659526193023 11.88340010854063" Properties=species:S:1:pos:R:3 unique_starting_index=18 config_type=initial n_minim_iter=1 energy=-3598.0875495701453 free_energy=-3598.0875495701453 pbc="T T T"
Si       1.50107892       8.20221058       0.57935927
Si      -2.44785457      -0.94683245       5.80503011
Si      -4.52151894      -1.00348644      11.09310611
Si      -1.05219557      -0.67028478       9.54169238
Si      -5.54535279       1.90861015      11.48595375
Si       4.23677600       1.92644788      -0.37990199
Si       2.80807844       0.53567987       0.03363782
Si      -2.22678449       3.42037652       8.88864327
Si      -2.82436337      -1.50346351      10.14621599
Si      -4.22250960       2.63960448       7.12584902
Si      -0.75794066       2.23414313       3.77691580
Si      -3.09020171       4.29590136       7.15878814
Si      -4.05663985      -1.36382389       6.92694813
Si       0.07751174       6.87478329       0.06384635
Si      -0.05915446       3.75387512       4.93881532
Si       1.68394701       6.67196508      -1.11962918
Si      -0.92046652      -1.56783474       4.61772327
Si       0.69476918      -2.24348173       6.71621480
Si       0.97062035       3.15361194       3.31911347
Si      -4.19010921       3.80987409       8.76035475
Si      -0.75099444       4.16502298       3.09822443
Si      -2.52474913      -1.03202164       8.18271968
22
Lattice="5.0927148480924425 -0.6649202652809463 -2.1850343862202606 -1.5827401981053877 10.245690572326534 -0.13459932896160934 -5.591995224019648 -3.021253985701205 11.893121216628598" Properties=species:S:1:pos:R:3 unique_starting_index=18 config_type=initial n_minim_iter=2 stress="-0.021516925839160334 -0.00048317587021993167 -0.004603359389422446 -0.00048317587021993167 -0.007395327120204734 -0.0003297043644374479 -0.004603359389422446 -0.0003297043644374479 -0.009091509073657933" pbc="T T T"
Si       1.49237201       8.20171168       0.57282191
Si      -2.44782521      -0.94917723       5.80924809
Si      -4.52207549      -1.00851910      11.10031635
Si      -1.05917759      -0.67585310       9.54502092
Si      -5.54648556       1.90436876      11.49184479
Si       4.22804222       1.92416860      -0.38394293
Si       2.80257899       0.53379913       0.03080555
Si      -2.23357308       3.41644440       8.88972223
Si      -2.82683117      -1.50855459      10.15121944
Si      -4.22289027       2.63814439       7.12964228
Si      -0.76109581       2.23260453       3.77685109
Si      -3.09388439       4.29303124       7.16057035
Si      -4.05575069      -1.36584941       6.93343623
Si       0.07229312       6.87599495       0.05901820
Si      -0.06629242       3.75114765       4.93596499
Si       1.67705390       6.67220561      -1.12576736
Si      -0.92093726      -1.57082161       4.62056313
Si       0.68933433      -2.24877277       6.71806192
Si       0.96297108       3.15137359       3.31699290
Si      -4.19240004       3.80654418       8.76432754
Si      -0.75496337       4.16320416       3.09672907
Si      -2.52657422      -1.03608566       8.18760345
22
Lattice="5.097873262571767 -0.6679030010417933 -2.1901426976406775 -1.5917390855345281 10.258670545945378 -0.14214681326508288 -5.599076310626128 -3.029720495747898 11.916080565562016" Properties=species:S:1:pos:R:3 unique_starting_index=18 config_type=initial n_minim_iter=3 stress="0.0019492495344168345 -0.003889490279390901 -0.009120038784168828 -0.003889490279390901 0.007149059468058103 -0.0023544593405087186 -0.009120038784168828 -0.0023544593405087186 0.016999240563862324" pbc="T T T"
Si       1.48743981       8.20975414       0.56715439
Si      -2.45141748      -0.95287276       5.82009348
Si      -4.52906150      -1.01565034      11.12005620
Si      -1.06506469      -0.68275530       9.56026819
Si      -5.55669977       1.90120243      11.50975600
Si       4.22997550       1.92376599      -0.38598852
Si       2.80427779       0.53227049       0.02920246
Si      -2.24246713       3.41548609       8.90055723
Si      -2.83151426      -1.51602758      10.16782785
Si      -4.23117526       2.63904035       7.14068902
Si      -0.76472382       2.23311946       3.78108826
Si      -3.10249601       4.29395186       7.17026845
Si      -4.06307415      -1.36971028       6.94733980
Si       0.06648017       6.88460158       0.05358257
Si      -0.07177834       3.75202721       4.93829797
Si       1.67336302       6.67932219      -1.13314230
Si      -0.92114068      -1.57600841       4.62907841
Si       0.68886682      -2.25711860       6.72857452
Si       0.95886578       3.15222349       3.31931423
Si      -4.20199633       3.80633826       8.77798995
Si      -0.75980485       4.16517249       3.09839421
Si      -2.53090022      -1.04187135       8.20224366
22
Lattice="5.098559808896638 -0.6675960092867114 -2.181056268342859 -1.5939466741920827 10.258807153566543 -0.14775935411205712 -5.588327443400638 -3.0336739980846343 11.895087207542007" Properties=species:S:1:pos:R:3 unique_starting_index=18 config_type=initial n_minim_iter=4 stress="0.0005033376682236158 -0.0033956873438128134 0.0022796591622777406 -0.0033956873438128134 0.0040977818265412 -0.002424901047320258 0.0022796591622777406 -0.002424901047320258 -0.0030209573586132098" pbc="T T T"
Si       1.48916879       8.20988050       0.56587755
Si      -2.44629974      -0.95487649       5.81047054
Si      -4.51807080      -1.02035930      11.10059683
Si      -1.05586547      -0.68570962       9.54653898
Si      -5.54624179       1.89701323      11.48680626
Si       4.23229057       1.92397615      -0.37861331
Si       2.80615270       0.53216767       0.03210582
Si      -2.23438083       3.41281945       8.88357123
Si      -2.82036001      -1.51956810      10.15044557
Si      -4.22587000       2.63720269       7.12581364
Si      -0.76073846       2.23209771       3.77413032
Si      -3.09625534       4.29060391       7.15701831
Si      -4.05999725      -1.37190475       6.93452584
Si       0.06529521       6.88514331       0.05050404
Si      -0.06646137       3.75050023       4.92766649
Si       1.67180215       6.67947128      -1.13163415
Si      -0.91456522      -1.57826406       4.62235546
Si       0.69783511      -2.25969547       6.71964159
Si       0.96205720       3.15161830       3.31529871
Si      -4.19468457       3.80237176       8.76153423
Si      -0.75669858       4.16285734       3.09166452
Si      -2.52228097      -1.04493909       8.18927587
22
Lattice="5.099217074028792 -0.6610566794045526 -2.1860186701691324 -1.579942801593892 10.238438065606102 -0.13935326281884108 -5.599005233437562 -3.0270803945189027 11.905887690521006" Properties=species:S:1:pos:R:3 unique_starting_index=18 config_type=initial n_minim_iter=5 stress="-0.0014786965943513516 0.00444246496054644 -0.0006002498025690784 0.00444246496054644 -0.005977891984330908 -0.0017320993856125913 -0.0006002498025690784 -0.0017320993856125913 0.003212149175298012" pbc="T T T"
Si       1.50165444       8.19866305       0.57306856
Si      -2.45174690      -0.95246245       5.81715023
Si      -4.52509937      -1.01729132      11.11186353
Si      -1.06241770      -0.67845276       9.55454091
Si      -5.54895658       1.89526074      11.50025411
Si       4.23576997       1.92676826      -0.37759891
Si       2.80731493       0.53562362       0.03054373
Si      -2.23470622       3.41110168       8.89300132
Si      -2.82713442      -1.51328753      10.15831667
Si      -4.22702938       2.63257677       7.13603079
Si      -0.75975236       2.22964406       3.78023393
Si      -3.09371840       4.28332781       7.17000902
Si      -4.06700865      -1.36958881       6.94133807
Si       0.07340944       6.87308538       0.05495683
Si      -0.06312336       3.74768933       4.93400445
Si       1.68115637       6.66901000      -1.12761172
Si      -0.91790218      -1.57387009       4.62532727
Si       0.69207562      -2.24976833       6.72209623
Si       0.96483235       3.15066215       3.31997126
Si      -4.19525542       3.79583479       8.77505845
Si      -0.75249949       4.15585853       3.09713898
Si      -2.52823249      -1.04086701       8.19632797
22
Lattice="5.1008252835202965 -0.666852144988376 -2.190163284966754 -1.5840703049299811 10.24231000730973 -0.12203804936257345 -5.606331738703261 -3.0070655201729624 11.901363721729698" Properties=species:S:1:pos:R:3 unique_starting_index=18 config_type=initial n_minim_iter=6 stress="4.623565459539405e-05 0.0001234707769324744 -0.005668617366296818 0.0001234707769324744 0.00046158812493497515 0.006309755678235985 -0.005668617366296818 0.006309755678235985 -0.006242359180720951" pbc="T T T"
Si       1.49966808       8.20266494       0.58673934
Si      -2.45780859      -0.94328921       5.81791762
Si      -4.53196703      -0.99976111      11.11011497
Si      -1.07029372      -0.66309377       9.55092634
Si      -5.55623008       1.91676254      11.50210711
Si       4.23518927       1.92597376      -0.37528424
Si       2.80729859       0.53571795       0.02809188
Si      -2.24289912       3.42835157       8.89352159
Si      -2.83308241      -1.49681624      10.15299583
Si      -4.23447747       2.64676391       7.14102528
Si      -0.76349842       2.23597218       3.78480720
Si      -3.10000238       4.29577979       7.18033137
Si      -4.07131595      -1.35693788       6.93938663
Si       0.06870304       6.87644571       0.06452262
Si      -0.06714977       3.75750308       4.93809921
Si       1.67792693       6.66855205      -1.11645128
Si      -0.91965835      -1.56754561       4.62152048
Si       0.68924262      -2.24038130       6.71398288
Si       0.96223365       3.15710978       3.32320502
Si      -4.20551624       3.81169247       8.78218498
Si      -0.75751105       4.16179226       3.10164047
Si      -2.53466691      -1.02824908       8.19243401
22
Lattice="5.095159698775925 -0.6677374075926615 -2.188886214897135 -1.5865597747775753 10.240740508968589 -0.12725101841230735 -5.592039635727708 -3.0089467832327657 11.912643230684353" Properties=species:S:1:pos:R:3 unique_starting_index=18 config_type=initial n_minim_iter=7 stress="-0.009604441451825818 -0.002219617182276257 0.005277478446640225 -0.002219617182276257 -0.0014348270235664045 0.0026779765051244213 0.005277478446640225 0.0026779765051244213 0.005185392727356249" pbc="T T T"
Si       1.49764100       8.20090213       0.58748390
Si      -2.45348982      -0.94516765       5.82582612
Si      -4.51893960      -1.00366134      11.12045299
Si      -1.06294376      -0.66638644       9.56152143
Si      -5.54200122       1.91483859      11.50949144
Si       4.23077805       1.92519700      -0.37178184
Si       2.80512530       0.53564013       0.02872908
Si      -2.23650324       3.42645332       8.89703214
Si      -2.82249536      -1.49933249      10.16227646
Si      -4.22800139       2.64517646       7.14616569
Si      -0.76091594       2.23361933       3.79024926
Si      -3.09305253       4.29160363       7.18899695
Si      -4.06190525      -1.35740858       6.94425114
Si       0.06483270       6.87601998       0.06066440
Si      -0.06348934       3.75576341       4.94232780
Si       1.67179313       6.66674524      -1.11721735
Si      -0.91458474      -1.56936524       4.62656706
Si       0.69541811      -2.24292018       6.72168297
Si       0.96401309       3.15545872       3.32698693
Si      -4.19956556       3.80771302       8.78887248
Si      -0.75751430       4.15957959       3.10131613
Si      -2.52721249      -1.03127946       8.19901587
22
Lattice="5.099811361560878 -0.6634029788844983 -2.190355814454185 -1.5844839353690243 10.237764724338467 -0.13857314070100046 -5.605303838011652 -3.024387831997905 11.912253654209627" Properties=species:S:1:pos:R:3 unique_starting_index=18 config_type=initial n_minim_iter=8 stress="-0.0031844484942601943 -0.001462506296778971 0.0002932114149031203 -0.001462506296778971 -0.0035243154081352384 -0.0035977313542298163 0.0002932114149031203 -0.0035977313542298163 -0.0013543312184111469" pbc="T T T"
Si       1.50157679       8.19872435       0.57730755
Si      -2.46045348      -0.95319570       5.82593443
Si      -4.52979412      -1.01930903      11.11731676
Si      -1.07076988      -0.67862509       9.55634404
Si      -5.55187982       1.89945172      11.50211779
Si       4.23439978       1.92705227      -0.37631502
Si       2.80725978       0.53704844       0.02504892
Si      -2.24415607       3.41519491       8.88497788
Si      -2.83219101      -1.51214555      10.15859391
Si      -4.23612566       2.63426498       7.14207725
Si      -0.76345904       2.22781070       3.78704542
Si      -3.09836453       4.27978506       7.18391051
Si      -4.06979532      -1.36680586       6.94365159
Si       0.06587955       6.87522375       0.05141810
Si      -0.06498625       3.74959947       4.93403082
Si       1.67479685       6.66670452      -1.12474348
Si      -0.91948983      -1.57525225       4.62580563
Si       0.69103138      -2.25055007       6.71829615
Si       0.96408449       3.15137111       3.32080846
Si      -4.20957982       3.79350603       8.78158076
Si      -0.75992007       4.15427511       3.09366715
Si      -2.53569052      -1.04255118       8.19516028
22
Lattice="5.097920606266165 -0.6576976225114218 -2.1926954208436302 -1.5700569928974635 10.243539333753342 -0.13489657455372647 -5.612843026025528 -3.030861805664918 11.912382323885565" Properties=species:S:1:pos:R:3 unique_starting_index=18 config_type=initial n_minim_iter=9 stress="-0.010604079060550102 0.009014642773079291 0.0011694083675492524 0.009014642773079291 0.013028196154803743 -0.0017138052368691795 0.0011694083675492524 -0.0017138052368691795 -0.0023818492550283306" pbc="T T T"
Si       1.51278454       8.20700481       0.58112989
Si      -2.46346777      -0.95619754       5.82702234
Si      -4.53385188      -1.02449557      11.11738731
Si      -1.07423247      -0.67896006       9.55512059
Si      -5.54947530       1.89756607      11.50127728
Si       4.23550755       1.93453335      -0.37783313
Si       2.80724589       0.54281446       0.02193966
Si      -2.24545620       3.42007241       8.87866368
Si      -2.83806152      -1.51381439      10.15812648
Si      -4.23547449       2.63089746       7.14533731
Si      -0.76121542       2.22961137       3.78949651
Si      -3.09346986       4.27916137       7.19131301
Si      -4.07424248      -1.37225623       6.94253095
Si       0.07350596       6.88400029       0.05260388
Si      -0.06037196       3.75647610       4.93387623
Si       1.68235814       6.67348660      -1.12168461
Si      -0.92549510      -1.57684973       4.62528327
Si       0.68548429      -2.24992696       6.71500930
Si       0.96687057       3.15662011       3.32306872
Si      -4.20999685       3.79123958       8.78482443
Si      -0.75626024       4.15744293       3.09434088
Si      -2.53982784      -1.04573778       8.19304118
22
Lattice="5.103557119552947 -0.6592419854388483 -2.1987774809441056 -1.5731122390642687 10.214596639659044 -0.12226772001139916 -5.627553827305414 -3.00823368615597 11.916568109622466" Properties=species:S:1:pos:R:3 unique_starting_index=18 config_type=initial n_minim_iter=10 stress="-0.0050821404040092616 0.004663522131371887 -0.0012918677356421628 0.004663522131371887 0.0025881616110562905 0.0019602450582537944 -0.0012918677356421628 0.0019602450582537944 -0.005724135172685725" pbc="T T T"
Si       1.51308157       8.18313831       0.59275307
Si      -2.46993431      -0.94781291       5.83088178
Si      -4.54616700      -1.01130389      11.12220912
Si      -1.08082036      -0.66829141       9.55677482
Si      -5.55884868       1.90763429      11.50640042
Si       4.23825767       1.92815634      -0.38032143
Si       2.80980596       0.54369909       0.01622100
Si      -2.26086513       3.42548095       8.87251288
Si      -2.84919565      -1.49705646      10.16115194
Si      -4.24705826       2.62914376       7.15641603
Si      -0.76422388       2.22811332       3.79625335
Si      -3.10146059       4.27122828       7.21095604
Si      -4.08535338      -1.36202793       6.94268403
Si       0.06910763       6.87038974       0.05880435
Si      -0.06256051       3.75636466       4.93810905
Si       1.68113209       6.65233302      -1.11309614
Si      -0.93468433      -1.56794277       4.62578188
Si       0.68139931      -2.23735669       6.71055390
Si       0.96441602       3.15158840       3.33076937
Si      -4.22810411       3.78705311       8.79743082
Si      -0.76197442       4.14952819       3.09963984
Si      -2.54852641      -1.03583999       8.19257162
22
Lattice="5.100810319112765 -0.6585150255685611 -2.202272505024106 -1.5713038682625458 10.2120400548617 -0.12287165802811115 -5.630125892613848 -3.0094725632160726 11.923935996675834" Properties=species:S:1:pos:R:3 unique_starting_index=18 config_type=initial n_minim_iter=11 stress="-0.0037807225370425977 0.005369931318668048 -0.0023564637249791414 0.005369931318668048 0.004069979215517838 0.0024292732019696407 -0.0023564637249791414 0.0024292732019696407 -0.006397004268156403" pbc="T T T"
Si       1.51163429       8.18000517       0.59255796
Si      -2.47036478      -0.94956160       5.83471298
Si      -4.54859694      -1.01418967      11.12808603
Si      -1.08280023      -0.67089897       9.56031003
Si      -5.55673709       1.90815297      11.51074552
Si       4.23637434       1.92731207      -0.38258026
Si       2.80744063       0.54398973       0.01422910
Si      -2.26457159       3.42609951       8.86767752
Si      -2.85175761      -1.49594360      10.16409614
Si      -4.24696372       2.62442090       7.16377418
Si      -0.76630845       2.22857458       3.79446158
Si      -3.10270264       4.26715231       7.21967445
Si      -4.08806439      -1.36444140       6.94515159
Si       0.06656889       6.87080775       0.05546296
Si      -0.06264753       3.75898181       4.94176692
Si       1.67905439       6.65070148      -1.11309429
Si      -0.93923153      -1.56914838       4.63006559
Si       0.67749607      -2.23841221       6.71033989
Si       0.96330501       3.15048303       3.33359886
Si      -4.23586807       3.78279339       8.80535345
Si      -0.76277160       4.14904663       3.10118398
Si      -2.55048249      -1.03882995       8.19536485
22
Lattice="5.097757050327057 -0.6576456776574081 -2.20338178651893 -1.5718149422053314 10.206366585521623 -0.12870268097276036 -5.6261263601212645 -3.0135448290839646 11.93394362858253" Properties=species:S:1:pos:R:3 unique_starting_index=18 config_type=initial n_minim_iter=12 stress="0.0019881803456157773 0.003220774883495019 0.00019947135479208292 0.003220774883495019 0.0028393865699670503 0.002458838039065596 0.00019947135479208292 0.002458838039065596 -0.004421828797576752" pbc="T T T"
Si       1.50680816       8.17268589       0.58860177
Si      -2.46785883      -0.95404288       5.84004267
Si      -4.54333670      -1.02147944      11.13453280
Si      -1.07863255      -0.67389340       9.56825150
Si      -5.54805304       1.90233072      11.51590145
Si       4.23671440       1.92487951      -0.38809224
Si       2.80414938       0.54216187       0.01440692
Si      -2.26546033       3.42131365       8.86485135
Si      -2.84615118      -1.49593650      10.16998039
Si      -4.24619098       2.61946682       7.17015261
Si      -0.76692449       2.22873123       3.79220373
Si      -3.10529396       4.26254501       7.22457187
Si      -4.08451455      -1.36961151       6.94859164
Si       0.05743435       6.86950842       0.04956321
Si      -0.05893547       3.75662763       4.94539842
Si       1.67763030       6.64670523      -1.11683861
Si      -0.94318022      -1.57213774       4.63996673
Si       0.67600634      -2.24193980       6.71057997
Si       0.96515383       3.14594847       3.34028867
Si      -4.23793238       3.77329302       8.81481814
Si      -0.75986481       4.14681834       3.10578827
Si      -2.54771717      -1.04563265       8.20013540
22
Lattice="5.099163290173891 -0.66092175343629 -2.2051264886825677 -1.5819567553657128 10.202767995799258 -0.13502331542508703 -5.627082068224504 -3.0143436650180986 11.940534967681485" Properties=species:S:1:pos:R:3 unique_starting_index=18 config_type=initial n_minim_iter=13 stress="0.005698636016097622 0.0003645383965034327 0.0004790286029871375 0.0003645383965034327 -0.00034830517128242973 0.0012919253383968934 0.0004790286029871375 0.0012919253383968934 0.0002431608504966013" pbc="T T T"
Si       1.49489015       8.16437110       0.58225240
Si      -2.46662043      -0.95636563       5.84220433
Si      -4.54520027      -1.02513914      11.13776136
Si      -1.07764827      -0.67512232       9.57102569
Si      -5.54966479       1.89848195      11.51872162
Si       4.23807088       1.91944349      -0.39397483
Si       2.80272891       0.53933225       0.01154117
Si      -2.27404145       3.41552886       8.86262124
Si      -2.84636726      -1.49702235      10.17212421
Si      -4.25509428       2.61766035       7.17281966
Si      -0.77050177       2.22959031       3.78885222
Si      -3.11681271       4.26397943       7.22530496
Si      -4.08813795      -1.37218720       6.94963407
Si       0.04866801       6.86674560       0.04078129
Si      -0.06275432       3.75290437       4.94784499
Si       1.66844317       6.64258781      -1.11815882
Si      -0.94571195      -1.57549452       4.64786622
Si       0.67592355      -2.24681222       6.71185144
Si       0.96512027       3.13888475       3.34052466
Si      -4.24592938       3.76792094       8.81789987
Si      -0.76155765       4.14411490       3.10832527
Si      -2.54692639      -1.05051034       8.20392515
22
Lattice="5.10088265923581 -0.6664670858298658 -2.203788718774117 -1.5971765000394476 10.21417206992329 -0.14671128501583985 -5.622512952692179 -3.022214094061059 11.94306194066961" Properties=species:S:1:pos:R:3 unique_starting_index=18 config_type=initial n_minim_iter=14 stress="0.006317902890367908 -0.002481470498947878 0.0012573383956056407 -0.002481470498947878 -0.0003841209579900254 0.0003985842868822447 0.0012573383956056407 0.0003985842868822447 0.003953453283262318" pbc="T T T"
Si       1.48114231       8.16737327       0.57379048
Si      -2.46505575      -0.96122019       5.84372042
Si      -4.54402965      -1.03161503      11.13702402
Si      -1.07183770      -0.68346311       9.56960740
Si      -5.54866187       1.89571431      11.51608479
Si       4.23870389       1.91566523      -0.39641788
Si       2.80257987       0.53756813       0.00791858
Si      -2.27980226       3.41055897       8.85707215
Si      -2.84479896      -1.50523392      10.17264733
Si      -4.26075469       2.61794280       7.16949393
Si      -0.77407148       2.23173441       3.78315010
Si      -3.12744717       4.26848831       7.22326611
Si      -4.08605533      -1.37676945       6.94891144
Si       0.03506275       6.87171156       0.03130309
Si      -0.06716283       3.75166412       4.94468124
Si       1.65909802       6.64717830      -1.12404445
Si      -0.94396860      -1.58321413       4.65271068
Si       0.68105330      -2.25798862       6.71500936
Si       0.96020794       3.13593525       3.33667284
Si      -4.25229155       3.76774752       8.81586421
Si      -0.76213558       4.14378513       3.10543656
Si      -2.54425362      -1.05907094       8.20352587
22
Lattice="5.1018022107928145 -0.6721722653596098 -2.2022296172930003 -1.6134089709484942 10.233512513400058 -0.16299544518305714 -5.61812579269091 -3.037250512184361 11.943862399645392" Properties=species:S:1:pos:R:3 unique_starting_index=18 config_type=initial n_minim_iter=15 stress="0.0034622481587065954 -0.003943957968679574 0.0006297634236321681 -0.003943957968679574 -0.00032905329699742914 -0.0007650440956302383 0.0006297634236321681 -0.0007650440956302383 0.004781091830429785" pbc="T T T"
Si       1.46552142       8.17533767       0.56253129
Si      -2.46276475      -0.96920458       5.84411523
Si      -4.54354472      -1.04319720      11.13280526
Si      -1.06754533      -0.69795623       9.56464361
Si      -5.54599392       1.88967703      11.50943889
Si       4.23935053       1.91365371      -0.40338216
Si       2.80190165       0.53711759       0.00169482
Si      -2.28984977       3.40441774       8.84488562
Si      -2.84238834      -1.51795900      10.17101915
Si      -4.26626659       2.62040807       7.16269541
Si      -0.78102174       2.23313733       3.77630106
Si      -3.14170975       4.27230538       7.22079248
Si      -4.08723370      -1.38589137       6.94971000
Si       0.01922468       6.88184784       0.01774397
Si      -0.07127505       3.75020991       4.94032553
Si       1.64842884       6.65697003      -1.13160012
Si      -0.94075613      -1.59642372       4.65735258
Si       0.68507030      -2.27438121       6.71449439
Si       0.95613195       3.13379168       3.33010727
Si      -4.26015195       3.76731123       8.81097396
Si      -0.76269675       4.14624276       3.09776117
Si      -2.54166762      -1.07301768       8.20084293
22
Lattice="5.106498814882771 -0.6772112198529259 -2.2026185252582313 -1.6332759669609966 10.245908427339822 -0.18617962973295815 -5.623793952468377 -3.0578190532434495 11.944054804422686" Properties=species:S:1:pos:R:3 unique_starting_index=18 config_type=initial n_minim_iter=16 stress="-0.001062383542699321 -0.0029275146193913732 -0.0013324702443644094 -0.0029275146193913732 0.001684407308899909 6.507494342441553e-05 -0.0013324702443644094 6.507494342441553e-05 0.001333183166474032" pbc="T T T"
Si       1.44681761       8.17440637       0.54704337
Si      -2.46718832      -0.98146059       5.84637078
Si      -4.55017997      -1.06217936      11.12289429
Si      -1.07246425      -0.71869516       9.55351160
Si      -5.54965336       1.87299658      11.49864307
Si       4.24473084       1.91026817      -0.41657487
Si       2.80242021       0.53723980      -0.00937365
Si      -2.31192514       3.38918016       8.82205573
Si      -2.84582018      -1.53315110      10.16470780
Si      -4.28349152       2.61659291       7.15070333
Si      -0.79291531       2.23160156       3.76472733
Si      -3.16199261       4.27347500       7.21690097
Si      -4.09352905      -1.39909574       6.94648528
Si      -0.00043626       6.88734038      -0.00415762
Si      -0.07949007       3.74109451       4.92886493
Si       1.63559444       6.66200862      -1.14032008
Si      -0.94092019      -1.61566522       4.66188404
Si       0.68364687      -2.29591585       6.71263208
Si       0.94956708       3.12573977       3.32131694
Si      -4.28235876       3.75859938       8.80664146
Si      -0.76350970       4.14444126       3.08551679
Si      -2.54427943      -1.09410371       8.19558672
22
Lattice="5.109881569255162 -0.6785464514519335 -2.2026420385875825 -1.6454113711700251 10.245978614214408 -0.20586333020312464 -5.625837102739184 -3.0742722359343464 11.951236738424194" Properties=species:S:1:pos:R:3 unique_starting_index=18 config_type=initial n_minim_iter=17 stress="-0.0031288798344095113 -0.0007932651076192644 -0.0011812135354567666 -0.0007932651076192644 0.002460287452257763 -8.234229371716732e-05 -0.0011812135354567666 -8.234229371716732e-05 0.0004309351813715058" pbc="T T T"
Si       1.43687564       8.16657100       0.53901921
Si      -2.46862142      -0.99191411       5.85214416
Si      -4.55276253      -1.07724409      11.12049655
Si      -1.07109488      -0.73570725       9.54911389
Si      -5.54611046       1.85054190      11.49686138
Si       4.25268178       1.90727527      -0.42310793
Si       2.80392788       0.53932353      -0.01794905
Si      -2.32826292       3.37102613       8.81190152
Si      -2.84661449      -1.54383016      10.16496652
Si      -4.29472977       2.61256531       7.14669774
Si      -0.79995758       2.22774197       3.75476089
Si      -3.17390062       4.27097366       7.21717208
Si      -4.09606601      -1.41106391       6.94955222
Si      -0.01687943       6.88733670      -0.02236127
Si      -0.08523880       3.73077812       4.92489051
Si       1.62889635       6.65998217      -1.14470357
Si      -0.94136865      -1.63184451       4.66794859
Si       0.68382794      -2.31154596       6.71532194
Si       0.94757244       3.11522600       3.31638884
Si      -4.29602246       3.74513110       8.80437384
Si      -0.76014391       4.14096379       3.07776050
Si      -2.54547004      -1.11227679       8.19472664
22
Lattice="5.111287563360441 -0.6830763701255538 -2.200607130288347 -1.660651586693132 10.251540009971974 -0.22077908362378693 -5.620756143615636 -3.0840942158461613 11.952355561057255" Properties=species:S:1:pos:R:3 unique_starting_index=18 config_type=initial n_minim_iter=18 stress="-0.004547337095640328 -0.0002540419024948062 0.0004904792787198787 -0.0002540419024948062 0.005061323554925084 -0.00021059368025705755 0.0004904792787198787 -0.00021059368025705755 0.001098706116259429" pbc="T T T"
Si       1.42497405       8.16283120       0.53661406
Si      -2.46607973      -0.99881421       5.85456201
Si      -4.55018897      -1.08448663      11.11405362
Si      -1.06680094      -0.75020906       9.54373730
Si      -5.53811485       1.84103375      11.49283769
Si       4.25806430       1.90359273      -0.42984247
Si       2.80480156       0.54113979      -0.02465102
Si      -2.33966812       3.35801912       8.80643567
Si      -2.84243026      -1.54946321      10.16120764
Si      -4.30217775       2.61287755       7.13933529
Si      -0.80410620       2.22482560       3.74811149
Si      -3.18327440       4.27506532       7.21245465
Si      -4.09535563      -1.41837671       6.95032418
Si      -0.03465609       6.88684643      -0.03740634
Si      -0.09369566       3.72673271       4.91929698
Si       1.61931486       6.65989041      -1.14591892
Si      -0.93929429      -1.64546396       4.67061179
Si       0.68781859      -2.32477620       6.71519359
Si       0.94503919       3.10820161       3.31305696
Si      -4.30581060       3.74151123       8.80044070
Si      -0.75744265       4.14273310       3.07289489
Si      -2.54300713      -1.12482253       8.19108017
22
Lattice="5.114964202616556 -0.6836806462538094 -2.1985659201137926 -1.6677905426793134 10.253468289010508 -0.2324407302614788 -5.623660271673797 -3.0948161257874696 11.946294028468358" Properties=species:S:1:pos:R:3 unique_starting_index=18 config_type=initial n_minim_iter=19 stress="-0.0034083329115228464 0.0006172560097092947 -1.3935879423329917e-05 0.0006172560097092947 0.00531077665579934 -0.001165888149150696 -1.3935879423329917e-05 -0.001165888149150696 0.0013622128555187535" pbc="T T T"
Si       1.41930519       8.15813790       0.53330834
Si      -2.46752241      -1.00640919       5.85309353
Si      -4.55227677      -1.09343465      11.10219697
Si      -1.06717170      -0.76211787       9.53487000
Si      -5.53606350       1.82974232      11.48301410
Si       4.26556826       1.90352209      -0.43478419
Si       2.80680585       0.54401586      -0.02992350
Si      -2.35043886       3.34615372       8.79774486
Si      -2.84394863      -1.55613897      10.15184325
Si      -4.30917066       2.60994745       7.13075680
Si      -0.80721426       2.21998555       3.73992848
Si      -3.19262324       4.27208461       7.20402158
Si      -4.09969818      -1.42570508       6.94187822
Si      -0.04373476       6.88695507      -0.04822090
Si      -0.09827941       3.72255548       4.91260972
Si       1.61721245       6.65961061      -1.15001134
Si      -0.94039837      -1.65618761       4.67044246
Si       0.68863120      -2.33504597       6.71243165
Si       0.94479893       3.10542175       3.30755213
Si      -4.31446757       3.73704111       8.79081265
Si      -0.75485116       4.14302677       3.06565019
Si      -2.54347479      -1.13531812       8.18371434
22
Lattice="5.126499976532491 -0.6841801237807886 -2.1953413381713514 -1.6856590323422744 10.242978028486679 -0.26015437040765077 -5.634423710369576 -3.115872102699316 11.93884978106748" Properties=species:S:1:pos:R:3 unique_starting_index=18 config_type=initial n_minim_iter=20 stress="0.0022754487404190787 0.0024693975049093504 0.0006165423811506392 0.0024693975049093504 0.002605815941229734 0.0002559341998666404 0.0006165423811506392 0.0002559341998666404 0.0025934308178389115" pbc="T T T"
Si       1.40306830       8.13166630       0.52621128
Si      -2.47065623      -1.02448005       5.85203432
Si      -4.56201577      -1.11282984      11.08096673
Si      -1.06660183      -0.78713931       9.51900948
Si      -5.53281936       1.79855587      11.46730842
Si       4.28652188       1.90158765      -0.44633531
Si       2.81312571       0.55158964      -0.04298185
Si      -2.38014602       3.31379443       8.78190388
Si      -2.84626244      -1.57049394      10.13594962
Si      -4.33128805       2.59462953       7.11430039
Si      -0.81134983       2.20599337       3.72191810
Si      -3.21469608       4.25829725       7.19194000
Si      -4.11125103      -1.44175160       6.93024875
Si      -0.06141825       6.87855046      -0.07588732
Si      -0.10829655       3.70585760       4.90125513
Si       1.61010793       6.64927879      -1.16118550
Si      -0.94605460      -1.68031024       4.67594172
Si       0.68994766      -2.35631690       6.70266773
Si       0.94125946       3.09577843       3.29600668
Si      -4.34036806       3.72470643       8.77647406
Si      -0.74945451       4.13828656       3.04780431
Si      -2.55056674      -1.15931632       8.16498542
22
Lattice="5.13800589097156 -0.6853893637075636 -2.1956815887578003 -1.705289161347313 10.236885204245489 -0.2902230163793281 -5.650121646773147 -3.1406533986525957 11.939366732408985" Properties=species:S:1:pos:R:3 unique_starting_index=18 config_type=initial n_minim_iter=21 stress="0.007199294075076509 0.0027264021074809215 -0.00018993104049440046 0.0027264021074809215 0.0016896000015090905 0.0029580835257102256 -0.00018993104049440046 0.0029580835257102256 0.002114685399723933" pbc="T T T"
Si       1.38253997       8.10617825       0.51895016
Si      -2.47559993      -1.04666227       5.85527427
Si      -4.57383253      -1.13576574      11.06320588
Si      -1.06815805      -0.81355614       9.50328488
Si      -5.52989583       1.76575247      11.45909927
Si       4.30659301       1.89822485      -0.46356036
Si       2.82003387       0.56232370      -0.05911446
Si      -2.41769296       3.28233729       8.76749920
Si      -2.85762269      -1.58587981      10.12370460
Si      -4.35886019       2.58097299       7.10459903
Si      -0.81605453       2.19393629       3.70376602
Si      -3.23909916       4.24333676       7.19111779
Si      -4.12908823      -1.45990499       6.92055122
Si      -0.08604388       6.87088525      -0.10946897
Si      -0.12238015       3.68955698       4.88715078
Si       1.60109053       6.64100517      -1.17634968
Si      -0.95263547      -1.71021633       4.68936222
Si       0.69056485      -2.38157920       6.69303224
Si       0.93738391       3.08140546       3.28631951
Si      -4.37562772       3.71314138       8.76666151
Si      -0.74928685       4.13949170       3.03364017
Si      -2.56134974      -1.18662921       8.14849275
