10
Lattice="5.3782271640852635 -0.0188737177999163 1.5943885565651478e-18 -2.7336666141461756 4.817439358408973 -4.069635650803446e-16 1.6139110954244584e-23 7.782827747940122e-16 9.21293783733505" Properties=species:S:1:pos:R:3 unique_starting_index=14 config_type=initial n_minim_iter=1 energy=-1632.502954803478 free_energy=-1632.502954803478 pbc="T T T"
Si       0.43652025       1.93487418       1.24521403
Si       2.20804030       2.86369147       1.24521403
Si       2.12061264       0.84871935       1.03660469
Si       0.52394791       3.94984629       1.03660469
Si       1.80335738       0.45101703       6.21921415
Si       0.84120317       4.34754861       6.21921415
Si       0.61965465       3.10652567       2.86718603
Si       2.02490589       1.69203997       2.86718603
Si      -0.87523741       3.37784187       5.52962009
Si       3.51979796       1.42072377       5.52962009
10
Lattice="5.378996447901981 -0.01856321244789862 1.5681580190828072e-18 -2.7338342976102177 4.801824259060545 -4.0564444602851094e-16 1.6226372373390546e-23 7.76457222104778e-16 9.191327822803965" Properties=species:S:1:pos:R:3 unique_starting_index=14 config_type=initial n_minim_iter=2 stress="-0.01669664426102809 -0.0033830290619713483 -3.448854308565973e-16 -0.0033830290619713483 -0.009365157563902849 -2.21448280385959e-15 -3.448854308565973e-16 -2.21448280385959e-15 -0.013955680754075158" pbc="T T T"
Si       0.43697099       1.92879644       1.24259831
Si       2.20819116       2.85446461       1.24259831
Si       2.12048832       0.84684995       1.03460863
Si       0.52467383       3.93641110       1.03460863
Si       1.80308020       0.44979799       6.20449666
Si       0.84208194       4.33346306       6.20449666
Si       0.61937661       3.09675406       2.85964440
Si       2.02578554       1.68650699       2.85964440
Si      -0.87498619       3.36726637       5.51685515
Si       3.52014834       1.41599467       5.51685515
10
Lattice="5.393764191902315 -0.015477290633774992 1.3074680780252399e-18 -2.738601186071743 4.794747673635231 -4.050466362348392e-16 1.6195233685047433e-23 7.766764633248813e-16 9.193923095705872" Properties=species:S:1:pos:R:3 unique_starting_index=14 config_type=initial n_minim_iter=3 stress="0.01756573827446801 -0.00027166286311385447 -2.1699651139027563e-16 -0.00027166286311385447 -0.0061117542057203935 -2.477387800006552e-15 -2.1699651139027563e-16 -2.477387800006552e-15 -0.016034868565179536" pbc="T T T"
Si       0.43918415       1.92592862       1.24265401
Si       2.21597885       2.85334176       1.24265401
Si       2.12570180       0.84859037       1.03548879
Si       0.52946120       3.93068001       1.03548879
Si       1.80672815       0.45141410       6.20615979
Si       0.84843486       4.32785628       6.20615979
Si       0.62157963       3.09468564       2.85993847
Si       2.03358338       1.68458475       2.85993847
Si      -0.87482336       3.36309614       5.51872219
Si       3.52998636       1.41617424       5.51872219
10
Lattice="5.389283680305121 -0.011964551806535242 1.010722159990036e-18 -2.7332096625373 4.785539476140517 -4.0426875317331417e-16 1.6682774336375128e-23 7.785334786295209e-16 9.215905530430485" Properties=species:S:1:pos:R:3 unique_starting_index=14 config_type=initial n_minim_iter=4 stress="-0.009938127086998734 0.006412705293468982 3.0167689069752567e-16 0.006412705293468982 -0.01737479590231696 -1.3076708863179602e-15 3.0167689069752567e-16 -1.3076708863179602e-15 0.00034632267692312236" pbc="T T T"
Si       0.44190391       1.92217526       1.24498419
Si       2.21417011       2.85139966       1.24498419
Si       2.12229064       0.85127605       1.03875924
Si       0.53378338       3.92229888       1.03875924
Si       1.80359284       0.45384199       6.22094364
Si       0.85248117       4.31973294       6.22094364
Si       0.62048983       3.09247237       2.86616784
Si       2.03558419       1.68110255       2.86616784
Si      -0.87057753       3.35734182       5.53242726
Si       3.52665154       1.41623310       5.53242726
10
Lattice="5.389324761069044 -0.013656009754078938 1.1536117223283574e-18 -2.7347375105714544 4.787853985819439 -4.0446427633299526e-16 1.6696027163251775e-23 7.785095764881354e-16 9.215622587594545" Properties=species:S:1:pos:R:3 unique_starting_index=14 config_type=initial n_minim_iter=5 stress="-0.0023563238485215837 -0.003482643437444948 2.0374749742096941e-16 -0.003482643437444948 -0.00711870018721839 -6.270007966817483e-16 2.0374749742096941e-16 -6.270007966817483e-16 -0.0015021381118406206" pbc="T T T"
Si       0.44149641       1.92269236       1.24510511
Si       2.21309084       2.85150562       1.24510511
Si       2.12188498       0.85108010       1.03878754
Si       0.53270227       3.92311787       1.03878754
Si       1.80337834       0.45378998       6.22077205
Si       0.85120891       4.32040799       6.22077205
Si       0.61886485       3.09352486       2.86574303
Si       2.03572240       1.68067311       2.86574303
Si      -0.87130774       3.35854872       5.53235547
Si       3.52589499       1.41564925       5.53235547
10
Lattice="5.386110284864346 -0.0070803518019518456 5.981188513160156e-19 -2.7272127827125416 4.788095383112822 -4.0448466887172623e-16 1.669842993373936e-23 7.788119374057205e-16 9.219201790294091" Properties=species:S:1:pos:R:3 unique_starting_index=14 config_type=initial n_minim_iter=6 stress="-0.006633793502999234 0.007213358256322949 -7.442991553399832e-17 0.007213358256322949 0.00114409758204458 2.8272196296428263e-16 -7.442991553399832e-17 2.8272196296428263e-16 -0.007776739355921382" pbc="T T T"
Si       0.44315168       1.92488335       1.24676583
Si       2.21574582       2.85613169       1.24676583
Si       2.12156528       0.85454754       1.03906695
Si       0.53733222       3.92646749       1.03906695
Si       1.80340833       0.45789814       6.22326756
Si       0.85548917       4.32311690       6.22326756
Si       0.62034120       3.09631166       2.86512316
Si       2.03855630       1.68470338       2.86512316
Si      -0.86472480       3.35957056       5.53510448
Si       3.52362230       1.42144447       5.53510448
10
Lattice="5.3843263964871815 -0.003961361231761069 3.3463564832994615e-19 -2.7235519157848556 4.776802956309026 -4.0353071600137006e-16 1.722546673277604e-23 7.832455354711586e-16 9.27168457387765" Properties=species:S:1:pos:R:3 unique_starting_index=14 config_type=initial n_minim_iter=7 stress="0.004665510190380229 0.003204633212653271 -5.901364206571746e-16 0.003204633212653271 -0.002251414725158971 -2.7945786845770753e-17 -5.901364206571746e-16 -2.7945786845770753e-17 0.004685780446656859" pbc="T T T"
Si       0.44227948       1.92303569       1.25695722
Si       2.21849500       2.84980591       1.25695722
Si       2.12259606       0.85363443       1.04378752
Si       0.53817842       3.91920717       1.04378752
Si       1.80437962       0.46219077       6.25848072
Si       0.85639486       4.31065083       6.25848072
Si       0.61681804       3.08856298       2.87726875
Si       2.04395644       1.68427862       2.87726875
Si      -0.85618498       3.35207063       5.56909466
Si       3.51695946       1.42077096       5.56909466
10
Lattice="5.331464596558928 -0.02049092644795531 1.7310062108763952e-18 -2.7114481776431996 4.788474937692361 -4.0451673216986996e-16 1.7021389249067773e-23 7.893529024484815e-16 9.343980662810301" Properties=species:S:1:pos:R:3 unique_starting_index=14 config_type=initial n_minim_iter=8 stress="0.0007977334835146938 -0.005385126218441768 3.2649668517668412e-18 -0.005385126218441768 0.00864433089576269 7.882562827837088e-16 3.2649668517668412e-18 7.882562827837088e-16 -5.437049266477994e-05" pbc="T T T"
Si       0.42392711       1.91908056       1.26604122
Si       2.19608930       2.84890345       1.26604122
Si       2.10694263       0.84205393       1.05650536
Si       0.51307378       3.92593008       1.05650536
Si       1.78511971       0.47167355       6.30347430
Si       0.83489671       4.29631046       6.30347430
Si       0.59529646       3.08309333       2.88528258
Si       2.02471996       1.68489068       2.88528258
Si      -0.83137790       3.36290555       5.62688672
Si       3.45139432       1.40507846       5.62688672
10
Lattice="5.327922045940115 -0.021377917145898477 1.805937134508164e-18 -2.7104417744295763 4.788556354866832 -4.0452360926845167e-16 1.7848401046113962e-23 7.899169754189581e-16 9.350657864314403" Properties=species:S:1:pos:R:3 unique_starting_index=14 config_type=initial n_minim_iter=9 stress="-0.0001325188776371618 -0.006976642055696488 -1.5578998246457622e-16 -0.006976642055696488 0.009667912041897184 -1.945975469587461e-15 -1.5578998246457622e-16 -1.945975469587461e-15 0.0018734637356844852" pbc="T T T"
Si       0.42243907       1.91836924       1.26647417
Si       2.19504120       2.84880920       1.26647417
Si       2.10601220       0.84154788       1.05776665
Si       0.51146807       3.92563056       1.05776665
Si       1.78475541       0.47189123       6.30754030
Si       0.83272486       4.29528721       6.30754030
Si       0.59347678       3.08281136       2.88617535
Si       2.02400349       1.68436707       2.88617535
Si      -0.82881309       3.36368425       5.63248064
Si       3.44629336       1.40349418       5.63248064
10
Lattice="5.357061538702227 -0.012616008478099499 1.06575613310061e-18 -2.7173685815911597 4.7988220805257615 -4.053908282006021e-16 1.8153608305574906e-23 7.89596833200626e-16 9.346868164225665" Properties=species:S:1:pos:R:3 unique_starting_index=14 config_type=initial n_minim_iter=10 stress="0.005198080276215482 0.0008383660401112381 6.477246193074995e-17 0.0008383660401112381 0.008966088136605476 6.893640591201244e-16 6.477246193074995e-17 6.893640591201244e-16 0.001980270380175643" pbc="T T T"
Si       0.43352939       1.92751181       1.25923178
Si       2.20616356       2.85869427       1.25923178
Si       2.11895021       0.85433515       1.05965868
Si       0.52074275       3.93187092       1.05965868
Si       1.79864740       0.46956719       6.30532847
Si       0.84104555       4.31663888       6.30532847
Si       0.60291356       3.09163764       2.88241938
Si       2.03677939       1.69456843       2.88241938
Si      -0.82178601       3.37657086       5.63684796
Si       3.46147896       1.40963521       5.63684796
10
Lattice="5.35648766991332 -0.0176796644495646 1.4935196312963319e-18 -2.72160732434401 4.800314537422336 -4.055169062300068e-16 1.856958810142668e-23 7.892792028042664e-16 9.34310819445631" Properties=species:S:1:pos:R:3 unique_starting_index=14 config_type=initial n_minim_iter=11 stress="-0.003272665379117587 -0.0041196138436070074 1.196859200936411e-16 -0.0041196138436070074 0.0033024347922417925 -1.0908318287838237e-15 1.196859200936411e-16 -1.0908318287838237e-15 -0.0005588129750944848" pbc="T T T"
Si       0.43189257       1.92507609       1.25600700
Si       2.20298777       2.85755879       1.25600700
Si       2.11713744       0.85464537       1.05753156
Si       0.51774290       3.92798950       1.05753156
Si       1.79757641       0.46985937       6.30367649
Si       0.83730393       4.31277550       6.30367649
Si       0.59860314       3.08699206       2.88032280
Si       2.03627720       1.69564281       2.88032280
Si      -0.81836947       3.37633595       5.63905210
Si       3.45324982       1.40629892       5.63905210
10
Lattice="5.358671513063639 -0.01632291935932725 1.3789059570960765e-18 -2.7215437408671357 4.788437084005551 -4.0451353213867557e-16 1.9044482249188598e-23 7.869642486004259e-16 9.315704860419352" Properties=species:S:1:pos:R:3 unique_starting_index=14 config_type=initial n_minim_iter=12 stress="-0.0013516784171987636 0.001229329148860228 7.967584833170252e-16 0.001229329148860228 -0.0011076211517096221 1.0291560672100787e-15 7.967584833170252e-16 1.0291560672100787e-15 0.0030452310796439167" pbc="T T T"
Si       0.43366666       1.91665138       1.24813525
Si       2.20346111       2.85546278       1.24813525
Si       2.11832068       0.85179529       1.05001130
Si       0.51880709       3.92031888       1.05001130
Si       1.79569035       0.46807535       6.28846556
Si       0.84143742       4.30403881       6.28846556
Si       0.59575664       3.07837079       2.87422282
Si       2.04137113       1.69374337       2.87422282
Si      -0.81558708       3.36453234       5.62549341
Si       3.45271485       1.40758183       5.62549341
10
Lattice="5.364672141889775 -0.016131191729911322 1.3627095333488718e-18 -2.7244542748201575 4.779248098978426 -4.037372724102063e-16 1.934874494639143e-23 7.850190963286564e-16 9.292679070025372" Properties=species:S:1:pos:R:3 unique_starting_index=14 config_type=initial n_minim_iter=13 stress="-0.00024834556682409604 0.0017909726506588931 5.276940182773507e-16 0.0017909726506588931 -0.00769181313692421 6.077466712048745e-16 5.276940182773507e-16 6.077466712048745e-16 -0.0023962609375207267" pbc="T T T"
Si       0.43533825       1.91178330       1.23585610
Si       2.20487961       2.85133361       1.23585610
Si       2.12506082       0.85154507       1.04495308
Si       0.51515704       3.91157184       1.04495308
Si       1.79677389       0.46518241       6.27962391
Si       0.84344398       4.29793450       6.27962391
Si       0.59348654       3.06889186       2.86629509
Si       2.04673132       1.69422505       2.86629509
Si      -0.80973075       3.34991671       5.61736759
Si       3.44994862       1.41320020       5.61736759
10
Lattice="5.385476923630013 -0.016111336462077623 1.3610323407636165e-18 -2.735008874498416 4.77991839688557 -4.037938968928732e-16 1.9605789305780672e-23 7.828028911986287e-16 9.2664446873191" Properties=species:S:1:pos:R:3 unique_starting_index=14 config_type=initial n_minim_iter=14 stress="0.007899768669424921 -0.00039656651117322647 1.0368866262917757e-15 -0.00039656651117322647 0.0010768049486062881 2.6490961378551573e-15 1.0368866262917757e-15 2.6490961378551573e-15 -0.0034739998289989057" pbc="T T T"
Si       0.44428155       1.90567856       1.21372322
Si       2.20618649       2.85812850       1.21372322
Si       2.14145657       0.85281844       1.03347255
Si       0.50901148       3.91098862       1.03347255
Si       1.80033623       0.45362666       6.27652854
Si       0.85013182       4.31018040       6.27652854
Si       0.58526384       3.05455890       2.85019493
Si       2.06520421       1.70924816       2.85019493
Si      -0.79056413       3.33742209       5.62205893
Si       3.44103217       1.42638497       5.62205893
10
Lattice="5.393950373477989 -0.027378639505854764 2.312862092543167e-18 -2.749385190693874 4.786490595418184 -4.0434909738196715e-16 1.9690540028844722e-23 7.822255032494791e-16 9.259609842539408" Properties=species:S:1:pos:R:3 unique_starting_index=14 config_type=initial n_minim_iter=15 stress="0.013851140060247203 -0.005410544396292701 9.111414524106384e-16 -0.005410544396292701 0.008759496033194458 1.783857770087026e-15 9.111414524106384e-16 1.783857770087026e-15 6.382844354703394e-05" pbc="T T T"
Si       0.44557594       1.89601277       1.19047288
Si       2.19898924       2.86309918       1.19047288
Si       2.15207251       0.85515617       1.02365580
Si       0.49249267       3.90395579       1.02365580
Si       1.79675057       0.43007803       6.29132745
Si       0.84781461       4.32903392       6.29132745
Si       0.56610175       3.03489542       2.83539635
Si       2.07846343       1.72421654       2.83539635
Si      -0.77355428       3.32072696       5.64258962
Si       3.41811946       1.43838499       5.64258962
10
Lattice="5.368537598881495 -0.04469960919704857 3.77608833830631e-18 -2.751914912824332 4.805948730444024 -4.059928654466525e-16 1.960911511890581e-23 7.84400636079618e-16 9.285358025557015" Properties=species:S:1:pos:R:3 unique_starting_index=14 config_type=initial n_minim_iter=16 stress="0.005696872494357157 -0.0011202937137947638 5.420070501260927e-16 -0.0011202937137947638 0.013470065239627044 8.102167244152932e-17 5.420070501260927e-16 8.102167244152932e-17 0.0013424211114448773" pbc="T T T"
Si       0.44083861       1.88160115       1.15324536
Si       2.17578407       2.87964797       1.15324536
Si       2.16315962       0.86518381       1.01187169
Si       0.45346306       3.89606531       1.01187169
Si       1.76724344       0.37978123       6.34553068
Si       0.84937924       4.38146789       6.34553068
Si       0.52597769       3.00505676       2.81165370
Si       2.09064500       1.75619236       2.81165370
Si      -0.72951446       3.29418110       5.70836650
Si       3.34613714       1.46706802       5.70836650
10
Lattice="5.349552020959541 -0.04635320274180306 3.9157791630276516e-18 -2.7437289783169367 4.810805295634741 -4.064031345420248e-16 1.9492536056094032e-23 7.876351814710342e-16 9.32364702862694" Properties=species:S:1:pos:R:3 unique_starting_index=14 config_type=initial n_minim_iter=17 stress="-0.007970293484197742 0.004052736630830949 4.923048948817843e-16 0.004052736630830949 0.0006722546243716417 -8.183769681151738e-17 4.923048948817843e-16 -8.183769681151738e-17 -0.0013207772066707367" pbc="T T T"
Si       0.43588246       1.88253612       1.16098902
Si       2.16994058       2.88191597       1.16098902
Si       2.15868927       0.86816635       1.01711064
Si       0.44713377       3.89628574       1.01711064
Si       1.75591930       0.37495660       6.37010351
Si       0.84990374       4.38949549       6.37010351
Si       0.52294743       3.00775893       2.81734768
Si       2.08287561       1.75669316       2.81734768
Si      -0.72446692       3.29662769       5.73534455
Si       3.33028996       1.46782440       5.73534455
10
Lattice="5.341959574126101 -0.04389294997152875 3.7079440245310845e-18 -2.737677622238073 4.807532526953679 -4.061266604668065e-16 1.9535461134694715e-23 7.902557290721606e-16 9.354667815763744" Properties=species:S:1:pos:R:3 unique_starting_index=14 config_type=initial n_minim_iter=18 stress="8.262644560376103e-05 0.001250810981114141 3.4265117967363675e-16 0.001250810981114141 -0.003762929959026453 -4.605826154962705e-16 3.4265117967363675e-16 -4.605826154962705e-16 -0.0009765855704581496" pbc="T T T"
Si       0.43591583       1.88025630       1.16603778
Si       2.16836612       2.88338328       1.16603778
Si       2.16199186       0.87155874       1.02021958
Si       0.44229009       3.89208083       1.02021958
Si       1.74825954       0.37109799       6.38970929
Si       0.85602241       4.39254159       6.38970929
Si       0.52111901       3.00651074       2.82156158
Si       2.08316294       1.75712884       2.82156158
Si      -0.71430696       3.29094775       5.76026372
Si       3.31858890       1.47269182       5.76026372
10
Lattice="5.31881717881151 -0.04440016137464221 3.750792079323364e-18 -2.726370054698696 4.807242898458068 -4.0610219330328994e-16 1.9963089686006432e-23 7.928921935775768e-16 9.385877010248052" Properties=species:S:1:pos:R:3 unique_starting_index=14 config_type=initial n_minim_iter=19 stress="0.004763487227368021 -0.0034769699561811164 2.5565124109493045e-16 -0.0034769699561811164 -0.007922789096469618 8.650308357775738e-16 2.5565124109493045e-16 8.650308357775738e-16 0.00420274937948627" pbc="T T T"
Si       0.43227879       1.87514803       1.19226055
Si       2.16016833       2.88769471       1.19226055
Si       2.16712241       0.88099524       1.02043331
Si       0.42532471       3.88184750       1.02043331
Si       1.73208502       0.36377896       6.38829380
Si       0.86036210       4.39906378       6.38829380
Si       0.52677156       3.01983902       2.83443867
Si       2.06567556       1.74300371       2.83443867
Si      -0.70589394       3.27878112       5.77960771
Si       3.29834106       1.48406162       5.77960771
10
Lattice="5.315502293083238 -0.03713097340179842 3.1367123810736592e-18 -2.7181821021434662 4.804911834762986 -4.0590527071629446e-16 2.0988495128494832e-23 7.893142634006706e-16 9.343523160514142" Properties=species:S:1:pos:R:3 unique_starting_index=14 config_type=initial n_minim_iter=20 stress="0.024174635464780915 -0.010501513624745266 -1.1291611287008315e-16 -0.010501513624745266 0.019786700280509762 1.0896930354742667e-15 -1.1291611287008315e-16 1.0896930354742667e-15 0.00796000401813772" pbc="T T T"
Si       0.44732620       1.85595413       1.20683492
Si       2.14999398       2.91182674       1.20683492
Si       2.20476354       0.90669054       0.99701448
Si       0.39255665       3.86109032       0.99701448
Si       1.71686493       0.33848305       6.32878830
Si       0.88045526       4.42929781       6.32878830
Si       0.53919900       3.03611084       2.82560827
Si       2.05812119       1.73167003       2.82560827
Si      -0.66437030       3.23679264       5.77910508
Si       3.26169049       1.53098822       5.77910508
10
Lattice="5.32631390571518 -0.024579476771866567 2.0763980043738707e-18 -2.712488595781499 4.78955933224035 -4.0460833425996577e-16 2.161647851867139e-23 7.854041413848906e-16 9.297236991702222" Properties=species:S:1:pos:R:3 unique_starting_index=14 config_type=initial n_minim_iter=21 stress="0.037987609788299105 -0.017395132806512083 -1.0248809812416967e-16 -0.017395132806512083 0.03995362914794629 2.9285666046700344e-16 -1.0248809812416967e-16 2.9285666046700344e-16 0.00966570220209806" pbc="T T T"
Si       0.46576836       1.83804122       1.22780599
Si       2.14805695       2.92693864       1.22780599
Si       2.23978822       0.92597541       0.97777087
Si       0.37403709       3.83900444       0.97777087
Si       1.71571205       0.32823699       6.26107852
Si       0.89811325       4.43674287       6.26107852
Si       0.56229576       3.05382813       2.82175950
Si       2.05152955       1.71115172       2.82175950
Si      -0.63684848       3.19840632       5.76404077
Si       3.25067379       1.56657353       5.76404077
