22
Lattice="5.391002144736618 -0.01729601811529707 0.6163601900439832 2.649716696326186 6.03064895456921 1.0388586567593279 2.6603442442977734 2.146779310398359 17.342472516396324" Properties=species:S:1:pos:R:3 unique_starting_index=40 config_type=initial n_minim_iter=1 energy=-3579.561715907018 free_energy=-3579.561715907018 pbc="T T T"
Si       8.75851786       3.80235485      14.96946877
Si       2.60331381       2.80091302       5.56384376
Si       5.91800198       1.30127127       8.02663179
Si       5.24724018       5.10230410      15.04663155
Si       5.55676894       3.93767888      16.83937563
Si       6.87227108       6.43246496       8.47267239
Si       5.92361895       2.21314887       2.68391390
Si       6.02178957       5.69538632      11.50890830
Si       4.27962483       2.22995788       0.85240518
Si       6.03552498       6.26539418      16.84225667
Si       5.63395199       3.53858382      11.33560312
Si       4.38399793       6.10614405      13.16738012
Si       2.37393262       3.23080685       1.32701634
Si       1.68834212       0.73523234       8.93294802
Si       4.31679059       2.03450549      16.90214015
Si       7.61744707       6.11136634      10.34682323
Si       3.99255817       4.17061659       6.09155435
Si       5.15918514       7.35906921       7.99756102
Si       4.74017808       4.39967820       4.21745428
Si       5.47641914       1.67466398      10.42353427
Si       7.74943767       2.75590800      16.84382855
Si       4.31706166       2.11398142       6.40290452
22
Lattice="5.429109174367917 -0.00946037733186627 0.6440525670732407 2.6829853883725443 6.033893188452081 1.0351267793277497 2.768627229829611 2.1004173382271976 17.36502071383258" Properties=species:S:1:pos:R:3 unique_starting_index=40 config_type=initial n_minim_iter=2 stress="0.02570553256883223 -0.005017150954036172 0.003007702960215743 -0.005017150954036172 0.019210043128416378 0.0012302095483115265 0.003007702960215743 0.0012302095483115265 0.02666253440347598" pbc="T T T"
Si       8.89790917       3.77444570      15.01552492
Si       2.65551998       2.79042283       5.57484605
Si       5.99922603       1.28942441       8.05890899
Si       5.36642975       5.06790500      15.07105790
Si       5.68279828       3.89790439      16.86884149
Si       6.97116265       6.41947956       8.49597564
Si       5.97881154       2.21696852       2.71018678
Si       6.12857215       5.67336993      11.53274343
Si       4.31784849       2.23634819       0.86998556
Si       6.17063995       6.22792528      16.86937419
Si       5.73358116       3.51438656      11.36351220
Si       4.48960530       6.07612626      13.18332285
Si       2.40212444       3.23147379       1.33036511
Si       1.74571227       0.71178933       8.94824103
Si       4.43303201       1.99240328      16.93286905
Si       7.73045631       6.09532928      10.37683262
Si       4.05654399       4.15836503       6.10218103
Si       5.24494740       7.34763913       8.00770150
Si       4.79938527       4.39559854       4.23351798
Si       5.56775559       1.65454185      10.45547260
Si       7.88901853       2.72097491      16.88947913
Si       4.38026448       2.10617583       6.42257968
22
Lattice="5.428379598794093 0.012531090715129511 0.6710826277947332 2.7148769320999326 5.997220177913155 1.0127508859304564 2.8815154277090005 2.014323333444751 17.209216347665347" Properties=species:S:1:pos:R:3 unique_starting_index=40 config_type=initial n_minim_iter=3 stress="0.005436217168335736 -0.0077979716638165355 0.018903067293982705 -0.0077979716638165355 -0.004074931645683506 0.001713020686028865 0.018903067293982705 0.001713020686028865 -0.009655105327963497" pbc="T T T"
Si       9.00036774       3.71569271      14.91075027
Si       2.70751307       2.75738125       5.52972331
Si       6.05065343       1.26977749       8.01476594
Si       5.47776571       4.98230898      14.93747296
Si       5.79505353       3.81334539      16.72313696
Si       7.04674738       6.36138300       8.42858038
Si       5.99820955       2.21707801       2.71250632
Si       6.21860268       5.60468631      11.43528823
Si       4.33428308       2.23712929       0.88135433
Si       6.29679475       6.13047786      16.72004014
Si       5.81307031       3.45621997      11.27495613
Si       4.59396032       5.98830088      13.05887825
Si       2.42390538       3.21112016       1.31661747
Si       1.79990058       0.67273466       8.87132377
Si       4.54008827       1.91687333      16.79152670
Si       7.81696015       6.03596362      10.29857814
Si       4.10856208       4.11008775       6.04286964
Si       5.32098319       7.28275964       7.92652740
Si       4.83955804       4.36187676       4.20610477
Si       5.63536031       1.61973732      10.38351508
Si       7.99659292       2.65806994      16.76570102
Si       4.42228411       2.08755994       6.37533217
22
Lattice="5.427520531527283 0.04309911031919808 0.6553103349614832 2.7493841796816656 6.000581276405232 0.9798367153080141 2.8439942017174697 1.9550749685789972 17.19471033521202" Properties=species:S:1:pos:R:3 unique_starting_index=40 config_type=initial n_minim_iter=4 stress="-0.006446464235973588 0.003995965453734427 0.0010837981381836559 0.003995965453734427 -0.006889168625252307 -0.007509463283186559 0.0010837981381836559 -0.007509463283186559 -0.008346286566212873" pbc="T T T"
Si       8.98286925       3.70144074      14.87061792
Si       2.71606873       2.74800605       5.51486152
Si       6.03748483       1.27166098       7.99399355
Si       5.46669302       4.94337281      14.90176660
Si       5.76901524       3.77079754      16.69062110
Si       7.06282630       6.35780305       8.38289778
Si       6.00246566       2.24122526       2.68840614
Si       6.21858864       5.58502020      11.39639845
Si       4.34910891       2.25753088       0.86183323
Si       6.28691434       6.08901034      16.67930695
Si       5.80131068       3.43342826      11.24486401
Si       4.59339124       5.95059675      13.02323755
Si       2.44094107       3.21397782       1.29606707
Si       1.77607007       0.64593815       8.86321509
Si       4.50184926       1.86999480      16.77241166
Si       7.82745114       6.02831810      10.25173552
Si       4.11498250       4.09526824       6.01175395
Si       5.34226957       7.27331088       7.87889410
Si       4.85479515       4.36370449       4.17441756
Si       5.61765600       1.61172798      10.36317090
Si       7.96439134       2.63325820      16.73282022
Si       4.41434350       2.09177721       6.35097460
22
Lattice="5.436270019980897 0.04503980620525887 0.6586127568370014 2.7535385367704293 6.004748925876093 1.0057858386185885 2.8595510471471295 2.0256004483597527 17.19806532239421" Properties=species:S:1:pos:R:3 unique_starting_index=40 config_type=initial n_minim_iter=5 stress="-0.0054912422636130605 0.0018196310542112112 0.0007631880956436299 0.0018196310542112112 -0.011493619077804279 0.007968128656008149 0.0007631880956436299 0.007968128656008149 -0.01322724218784884" pbc="T T T"
Si       9.00883624       3.76152990      14.88516214
Si       2.72771811       2.77185632       5.52895943
Si       6.04858806       1.30209053       8.00250578
Si       5.48600884       5.00258452      14.91821048
Si       5.78864318       3.83867400      16.70289612
Si       7.08074224       6.39424610       8.40960044
Si       6.00881122       2.25549762       2.70435291
Si       6.23369836       5.63151579      11.41912713
Si       4.35806038       2.26120305       0.87466506
Si       6.30729842       6.15862810      16.70373304
Si       5.81561202       3.47168597      11.25836770
Si       4.60844978       6.00254097      13.04747104
Si       2.44588675       3.21656771       1.31011063
Si       1.78365809       0.68287649       8.86268702
Si       4.51674094       1.93908430      16.77652112
Si       7.84813764       6.06733535      10.27502024
Si       4.12342992       4.10956704       6.02821661
Si       5.35281731       7.31070866       7.90411248
Si       4.86539420       4.37515691       4.19109007
Si       5.63502503       1.66212303      10.37269818
Si       7.98611119       2.70439217      16.74096678
Si       4.42470653       2.12413597       6.35854752
22
Lattice="5.413139067387198 0.027941663343849347 0.6692066754688982 2.7278270497269013 6.0166475587181445 0.9821287237493554 2.875165834659378 1.9436337745437886 17.19787948419559" Properties=species:S:1:pos:R:3 unique_starting_index=40 config_type=initial n_minim_iter=6 stress="-0.011182603890181398 -0.008406040167530396 0.00524251840295575 -0.008406040167530396 -0.021614095164646675 -0.010212279197380462 0.00524251840295575 -0.010212279197380462 0.0009607958668952866" pbc="T T T"
Si       8.99378394       3.68134498      14.88680447
Si       2.71795388       2.75274205       5.52088740
Si       6.02592901       1.25093836       8.01100794
Si       5.48112991       4.93294458      14.90480254
Si       5.78918494       3.75892611      16.70153835
Si       7.05235849       6.36896522       8.39163284
Si       5.97255452       2.24393329       2.71391024
Si       6.21239112       5.58323415      11.40593717
Si       4.33516832       2.25470949       0.87170960
Si       6.29676862       6.08934237      16.69354750
Si       5.79951947       3.40261822      11.25639877
Si       4.59807642       5.94856891      13.03409937
Si       2.43065732       3.21112277       1.29935081
Si       1.79072854       0.63914626       8.86590380
Si       4.51822132       1.85567819      16.77972049
Si       7.82332967       6.02164146      10.26485026
Si       4.10775949       4.07103815       6.01875066
Si       5.32239824       7.29371783       7.87486975
Si       4.84292212       4.34850407       4.17417480
Si       5.62794865       1.61289481      10.37909180
Si       7.97358169       2.62060628      16.74466558
Si       4.41641778       2.09977067       6.35917384
22
Lattice="5.3951880323157 0.05596235924783729 0.6746348219238413 2.7540412423749996 6.201307137852634 0.9641684571844568 2.9185503409398534 1.985611287429915 16.992440965420073" Properties=species:S:1:pos:R:3 unique_starting_index=40 config_type=initial n_minim_iter=7 stress="-0.01644411630313309 -0.0025005224744462846 0.0007331600290856449 -0.0025005224744462846 0.018762049591078012 -0.006688356939832621 0.0007331600290856449 -0.006688356939832621 -0.009871565948214133" pbc="T T T"
Si       9.03416387       3.80827285      14.71772042
Si       2.72990633       2.84293670       5.44975416
Si       6.01807608       1.30131200       7.93225730
Si       5.53499924       5.06784426      14.71858916
Si       5.84009656       3.86941447      16.51061136
Si       7.08609622       6.59769830       8.28448563
Si       5.94645044       2.35708722       2.71261534
Si       6.24576311       5.75703056      11.26954891
Si       4.33641694       2.34075298       0.86578043
Si       6.35187232       6.27630175      16.50333147
Si       5.81825564       3.48447295      11.13417878
Si       4.64745159       6.11198615      12.88502080
Si       2.44647731       3.29816518       1.28248675
Si       1.80579151       0.65554462       8.75980956
Si       4.53751557       1.90762871      16.58311430
Si       7.86906522       6.21978903      10.15609790
Si       4.13955010       4.16355365       5.94706141
Si       5.35853398       7.53153574       7.76249182
Si       4.86425714       4.45905498       4.11461270
Si       5.64471464       1.68018755      10.25874216
Si       7.99431350       2.72750444      16.54870845
Si       4.44014020       2.19328809       6.29252176
22
Lattice="5.427161269206645 0.10178485104895978 0.6664467746284438 2.8191537605921915 6.228184268893934 0.967407310222965 2.9356992386981156 2.039679739887337 16.911181715440133" Properties=species:S:1:pos:R:3 unique_starting_index=40 config_type=initial n_minim_iter=8 stress="0.011824893511806435 0.013554779104996953 -0.0009078812947642293 0.013554779104996953 -0.006999005515416036 0.0005804711635069838 -0.0009078812947642293 0.0005804711635069838 -0.009972098986463377" pbc="T T T"
Si       9.12029160       3.90949972      14.64151134
Si       2.75490349       2.87639763       5.42122271
Si       6.04572719       1.36609969       7.89288660
Si       5.60350641       5.13038539      14.64259921
Si       5.89615368       3.94675336      16.43456039
Si       7.16881535       6.70054103       8.23614149
Si       5.97466712       2.43469323       2.71874923
Si       6.31344882       5.82915657      11.21744019
Si       4.38587916       2.38086949       0.86275192
Si       6.42670327       6.36728176      16.43812502
Si       5.86317346       3.52914662      11.08822506
Si       4.71189192       6.16582733      12.83929968
Si       2.48889718       3.30680259       1.27960567
Si       1.81591643       0.68618315       8.71741135
Si       4.54702089       1.97744351      16.50149141
Si       7.97281067       6.31293025      10.12289728
Si       4.20263891       4.17987927       5.92678517
Si       5.44359099       7.60643320       7.71911464
Si       4.93083576       4.47608868       4.08168496
Si       5.67888539       1.74774079      10.19770843
Si       8.04200573       2.84130473      16.45871714
Si       4.48689048       2.25655745       6.26733150
22
Lattice="5.396551779212472 0.08799042267268319 0.6624701935036319 2.785175813152888 6.272244718940548 0.9925716875078168 2.8927730846446753 2.1168615622320583 16.996749869884667" Properties=species:S:1:pos:R:3 unique_starting_index=40 config_type=initial n_minim_iter=9 stress="0.0008181808889425799 0.002457873317947696 -0.0027626052596908235 0.002457873317947696 -0.00012397894951681474 0.007065027731862935 -0.0027626052596908235 0.007065027731862935 0.01936706137799204" pbc="T T T"
Si       9.05745873       3.97212854      14.71171739
Si       2.73173917       2.91733270       5.45518266
Si       5.99339298       1.39823775       7.92390716
Si       5.54927222       5.20240692      14.71769645
Si       5.83373904       4.02479637      16.51979468
Si       7.09421244       6.79073443       8.27989446
Si       5.90883401       2.47040447       2.75322978
Si       6.24358772       5.89872330      11.28360335
Si       4.36446632       2.39302932       0.87522594
Si       6.35570380       6.47300345      16.54366581
Si       5.80243897       3.57167026      11.15857530
Si       4.65308842       6.24363271      12.92941440
Si       2.46633590       3.31497454       1.29558269
Si       1.80431602       0.71874818       8.76198005
Si       4.47862759       2.05058982      16.58152783
Si       7.91187049       6.38593456      10.19950681
Si       4.16560260       4.20201490       5.96465280
Si       5.37946589       7.69384241       7.76762211
Si       4.89132109       4.47881008       4.09800999
Si       5.62118497       1.78002697      10.23331240
Si       7.96414073       2.92513731      16.53060456
Si       4.44792933       2.29003346       6.30413509
22
Lattice="5.434083644711963 0.05084322862224523 0.6320321390373614 2.760319203824725 6.27791318363497 0.9567263539283224 2.8174399709414533 2.066584938655959 16.830420379749885" Properties=species:S:1:pos:R:3 unique_starting_index=40 config_type=initial n_minim_iter=10 stress="0.027699459291794844 -0.006396751354744348 -0.007356768583899748 -0.006396751354744348 -0.009010379583519933 -0.0016544115577637971 -0.007356768583899748 -0.0016544115577637971 0.011172462589038897" pbc="T T T"
Si       9.04515297       3.89453695      14.53038079
Si       2.71504183       2.90577907       5.38184312
Si       5.99955899       1.35507638       7.82751695
Si       5.49467154       5.14007856      14.54530148
Si       5.77400628       3.96150743      16.34098563
Si       7.05731689       6.77090392       8.15097866
Si       5.90160371       2.46139443       2.71555536
Si       6.19154809       5.84997902      11.14059744
Si       4.38577535       2.37570359       0.84506469
Si       6.28280855       6.42619284      16.36589972
Si       5.76327658       3.50570293      11.03440321
Si       4.58426770       6.19911128      12.79142670
Si       2.45751267       3.29413655       1.26624916
Si       1.78119987       0.68728644       8.67137632
Si       4.39981316       1.99430777      16.41038553
Si       7.88756631       6.33839751      10.06631722
Si       4.14922454       4.17851679       5.88129814
Si       5.31781261       7.67942893       7.65390843
Si       4.88417024       4.41987183       4.01619679
Si       5.59404167       1.73240635      10.10804635
Si       7.91984380       2.86459786      16.33603666
Si       4.43126724       2.24357403       6.22853202
22
Lattice="5.40002884810876 0.06874454258675665 0.6512450145880685 2.7661505120206407 6.321985098219863 0.9680932673639931 2.869807109401809 2.0947468379743825 16.829134098558846" Properties=species:S:1:pos:R:3 unique_starting_index=40 config_type=initial n_minim_iter=11 stress="0.014286516181200705 0.0037624560233914463 -0.00026210291564509464 0.0037624560233914463 0.006803069643671049 -0.002836739448429869 -0.00026210291564509464 -0.002836739448429869 0.01870945523200576" pbc="T T T"
Si       9.06972934       3.95247477      14.55133927
Si       2.73276900       2.93565654       5.37963811
Si       6.00121325       1.39366162       7.84744397
Si       5.53989378       5.17917220      14.55040307
Si       5.81260489       4.00603413      16.35159768
Si       7.05350781       6.84633460       8.16746092
Si       5.85855731       2.52263975       2.75385776
Si       6.20694175       5.90043541      11.15351044
Si       4.37631684       2.40808144       0.86494733
Si       6.32693434       6.49582918      16.38979391
Si       5.77324269       3.53357894      11.05599867
Si       4.62319526       6.24409198      12.81124989
Si       2.45652427       3.30504847       1.27619971
Si       1.81648630       0.69841372       8.66988673
Si       4.42124747       2.03103256      16.41322052
Si       7.89849270       6.40252933      10.08946919
Si       4.17070749       4.22946443       5.89361182
Si       5.32451574       7.74663973       7.66980788
Si       4.88675177       4.42556093       4.01709140
Si       5.59579017       1.77652842      10.11774716
Si       7.93405762       2.93267044      16.34643348
Si       4.42632544       2.26310308       6.24243988
22
Lattice="5.389287811585809 0.05756562652310697 0.6463087300883184 2.748395753399425 6.324566434114596 0.9595847108188136 2.8521061130221117 2.0831479524697287 16.7594420508569" Properties=species:S:1:pos:R:3 unique_starting_index=40 config_type=initial n_minim_iter=12 stress="0.00642421686882588 0.0057473587137692825 3.310901172457644e-05 0.0057473587137692825 0.018664917694920038 -6.176564372780595e-06 3.310901172457644e-05 -6.176564372780595e-06 0.011846214308142011" pbc="T T T"
Si       9.05580821       3.93352531      14.48468850
Si       2.72578156       2.92959954       5.34609650
Si       5.97894024       1.38191348       7.81785104
Si       5.52291066       5.15225850      14.48243815
Si       5.79145263       3.98885505      16.28569337
Si       7.01946435       6.83204286       8.13580140
Si       5.82044134       2.54201290       2.75597706
Si       6.17339386       5.88057227      11.09905182
Si       4.36745028       2.40634697       0.85865841
Si       6.29703821       6.48875186      16.32952781
Si       5.74676525       3.51908758      11.01981430
Si       4.59635403       6.22592415      12.76516839
Si       2.44362453       3.28730817       1.26942114
Si       1.81849895       0.68964861       8.63320846
Si       4.38136712       2.02154032      16.34210446
Si       7.86966617       6.39282269      10.03567131
Si       4.16799868       4.24120603       5.86660337
Si       5.28560380       7.75018092       7.63112102
Si       4.87199463       4.38226133       3.98166177
Si       5.57280281       1.76303186      10.06446417
Si       7.90136654       2.93283722      16.26845968
Si       4.40362826       2.26003495       6.20709551
22
Lattice="5.389056945079473 0.018118685600822648 0.6454759087332784 2.7032833706467154 6.232445184055203 0.9632190367471606 2.8339891340036028 2.049606893370735 16.75513824192296" Properties=species:S:1:pos:R:3 unique_starting_index=40 config_type=initial n_minim_iter=13 stress="0.006886457381049735 -0.003994984720374626 -0.0009370030353024028 -0.003994984720374626 0.010673445470413625 -0.00335767296098281 -0.0009370030353024028 -0.00335767296098281 0.008445804431872284" pbc="T T T"
Si       9.06397170       3.83560415      14.47601370
Si       2.71498489       2.90492857       5.31554949
Si       5.95933275       1.33725193       7.82848912
Si       5.50796102       5.02855942      14.47413992
Si       5.77020867       3.90594214      16.29097610
Si       6.94861865       6.69748896       8.15553124
Si       5.76167474       2.53252921       2.78861363
Si       6.12386640       5.75359649      11.08683839
Si       4.35855033       2.35852664       0.86073275
Si       6.25312748       6.38638555      16.35280071
Si       5.71423126       3.45266035      11.04878323
Si       4.54998640       6.10533382      12.78658876
Si       2.41620498       3.19709539       1.27316913
Si       1.82131907       0.67718950       8.62169597
Si       4.32122698       1.99018557      16.33139775
Si       7.81004963       6.24997539      10.02257786
Si       4.15730129       4.18670509       5.85530081
Si       5.23418830       7.63227410       7.63797014
Si       4.84580153       4.22263413       3.96227499
Si       5.55957978       1.71141549      10.04241728
Si       7.87006912       2.89623846      16.24808798
Si       4.39428654       2.21956145       6.19853195
22
Lattice="5.383453715282021 0.0006212574061342172 0.6399396381001761 2.6796068089851857 6.168418883503429 0.9638903542315763 2.8071395940817667 2.0312309305737983 16.748560656252884" Properties=species:S:1:pos:R:3 unique_starting_index=40 config_type=initial n_minim_iter=14 stress="0.0012455298124411198 -0.001700203210981708 -0.00610189340372511 -0.001700203210981708 0.0075572598340763 -0.008728905520143515 -0.00610189340372511 -0.008728905520143515 0.0035977206341227526" pbc="T T T"
Si       9.05074869       3.78201175      14.46136900
Si       2.70342181       2.87494399       5.29916592
Si       5.93647143       1.32327618       7.81742142
Si       5.48753383       4.95369800      14.46609866
Si       5.74029578       3.85723340      16.28767608
Si       6.90789650       6.61691557       8.16456225
Si       5.72560422       2.52369611       2.79846591
Si       6.08747327       5.67531492      11.07186440
Si       4.34917370       2.33147894       0.85858676
Si       6.21222391       6.31950096      16.35964874
Si       5.68280015       3.41221683      11.05890601
Si       4.51270010       6.02821574      12.79383688
Si       2.39951662       3.14061164       1.27362545
Si       1.80981879       0.67357746       8.61156923
Si       4.26807216       1.97551332      16.31933874
Si       7.75393175       6.15035773      10.01753877
Si       4.14976505       4.15881004       5.84433491
Si       5.20011593       7.56237367       7.63236214
Si       4.82328955       4.13145324       3.95215960
Si       5.54274316       1.68655181      10.02435759
Si       7.83318934       2.87915962      16.22772695
Si       4.37864792       2.19313369       6.18981910
22
Lattice="5.377626421782372 -0.021557176318175476 0.6483781312516054 2.6515329701412282 6.11712544095062 0.980170331257691 2.8098329407281515 2.0270374470487926 16.859919499953897" Properties=species:S:1:pos:R:3 unique_starting_index=40 config_type=initial n_minim_iter=15 stress="0.0019181698549184086 -0.0019455749710044015 -0.0015978809231520239 -0.0019455749710044015 0.0036112273927869673 -0.0005050545370510378 -0.0015978809231520239 -0.0005050545370510378 0.012374339641657328" pbc="T T T"
Si       9.05342815       3.73861417      14.56261978
Si       2.70097325       2.85317052       5.32701283
Si       5.92986796       1.30102619       7.87819367
Si       5.48682498       4.90129668      14.57100745
Si       5.72856950       3.82217925      16.39942941
Si       6.87681416       6.55386693       8.24330143
Si       5.70073433       2.50353283       2.83013110
Si       6.06314924       5.61537730      11.14919956
Si       4.34130576       2.30798887       0.87698216
Si       6.19416127       6.27073901      16.48696133
Si       5.66826036       3.37795989      11.14942990
Si       4.49322284       5.97368573      12.89434658
Si       2.38227547       3.09592062       1.28874599
Si       1.80266125       0.68005131       8.65878811
Si       4.24912158       1.97165376      16.42529575
Si       7.72031586       6.08165702      10.09510817
Si       4.14120415       4.13854797       5.88663182
Si       5.17094134       7.50678913       7.69508631
Si       4.80069230       4.06491853       3.98351805
Si       5.54454845       1.66223625      10.08418106
Si       7.82489392       2.86607364      16.33402594
Si       4.37148311       2.16816289       6.23307735
22
Lattice="5.385801682645467 -0.0535920794234522 0.6675519747292644 2.6209360178103065 6.061940642099415 1.0002617358005204 2.855483036041431 2.020634669914182 16.923662244659575" Properties=species:S:1:pos:R:3 unique_starting_index=40 config_type=initial n_minim_iter=16 stress="-0.0011281750074632248 -0.008526127344484345 0.0053035290805084866 -0.008526127344484345 -0.008483570832113216 0.00306216160427866 0.0053035290805084866 0.00306216160427866 -0.0033305264771925297" pbc="T T T"
Si       9.11764470       3.68283209      14.63606109
Si       2.73147021       2.82648183       5.34054964
Si       5.94771807       1.27601985       7.92332567
Si       5.53959132       4.83118462      14.64810050
Si       5.77133218       3.77865503      16.48225200
Si       6.85006840       6.48709534       8.31674256
Si       5.68967843       2.47765164       2.86340338
Si       6.05847460       5.53761499      11.20631851
Si       4.33119711       2.28225734       0.89786024
Si       6.21906069       6.21078857      16.58436195
Si       5.68315804       3.32621046      11.22341154
Si       4.50475852       5.90433989      12.96881568
Si       2.36633124       3.03595880       1.30606033
Si       1.81805506       0.68633696       8.68751054
Si       4.25804996       1.96894138      16.48378424
Si       7.72171516       6.00210091      10.15006978
Si       4.15126144       4.11787307       5.91305243
Si       5.16936689       7.44884856       7.74708631
Si       4.78152255       3.98224676       4.02293868
Si       5.59067351       1.63243784      10.11928993
Si       7.86907054       2.85663248      16.40107432
Si       4.38126107       2.13842300       6.26375706
22
Lattice="5.3865369185219905 -0.07421612642926032 0.6957669246977164 2.5997982366639527 6.031728227403939 1.0332203753092657 2.93179153965632 2.0517019239618817 16.982322312631045" Properties=species:S:1:pos:R:3 unique_starting_index=40 config_type=initial n_minim_iter=17 stress="-0.010971753417086427 -0.00690941058681632 0.00782434327722357 -0.00690941058681632 -0.01588687093557197 0.005834149541345843 0.00782434327722357 0.005834149541345843 -0.0034005153153747023" pbc="T T T"
Si       9.20056745       3.67786640      14.72052578
Si       2.76998502       2.82332959       5.35808766
Si       5.98457641       1.28091027       7.97267909
Si       5.62122392       4.81031175      14.73052791
Si       5.84490891       3.78336601      16.56997807
Si       6.84267371       6.46758013       8.40475702
Si       5.68047033       2.46956310       2.90608008
Si       6.07784179       5.50896544      11.27284132
Si       4.31794200       2.27217671       0.92764170
Si       6.27692848       6.20851160      16.68972103
Si       5.71520431       3.30830406      11.30270770
Si       4.54619222       5.88206327      13.04919538
Si       2.35647900       2.99276051       1.33013160
Si       1.84895972       0.71171527       8.71076938
Si       4.29423180       2.00448942      16.53804255
Si       7.73846662       5.97209503      10.22763410
Si       4.17019654       4.11241332       5.96260214
Si       5.17372996       7.43819648       7.81228723
Si       4.77148440       3.92784350       4.06508801
Si       5.64767810       1.63158830      10.15860442
Si       7.93573987       2.89639276      16.47423155
Si       4.40527927       2.14365171       6.30124596
22
Lattice="5.401248216203734 -0.11658887691429723 0.7115670723254105 2.55836450821784 6.0302515819154925 1.070866360601306 2.9846744707466613 2.1351004364142057 16.882601831489186" Properties=species:S:1:pos:R:3 unique_starting_index=40 config_type=initial n_minim_iter=18 stress="-0.00796436304152048 0.013786365206398395 0.007377808975273095 0.013786365206398395 -0.00463223997402898 0.005205984195011922 0.007377808975273095 0.005205984195011922 -0.0013708417201795" pbc="T T T"
Si       9.32806483       3.70642232      14.65782188
Si       2.83752258       2.84528690       5.29159704
Si       6.00575088       1.30665387       7.92693061
Si       5.73969642       4.79606821      14.69585945
Si       5.89818656       3.81906272      16.51289356
Si       6.78713079       6.51908466       8.46265562
Si       5.65627235       2.48060591       2.91452579
Si       6.04301566       5.49026521      11.23763953
Si       4.30497997       2.29276205       0.96380415
Si       6.30807358       6.26453724      16.68432406
Si       5.71553922       3.28125234      11.30439467
Si       4.56455417       5.87630617      13.03788554
Si       2.33626771       2.91167375       1.34616575
Si       1.87025485       0.76932621       8.63144976
Si       4.23655840       2.10563594      16.41098134
Si       7.72918339       5.97056009      10.21071978
Si       4.19095379       4.15436350       5.97513407
Si       5.15150722       7.50099355       7.82274350
Si       4.72331096       3.83171973       4.07870444
Si       5.71625813       1.65489618      10.07711555
Si       7.98605890       3.03988154      16.37098071
Si       4.44328447       2.18715162       6.27621035
22
Lattice="5.405107169083502 -0.17724644300902792 0.7166022044954333 2.4899453140778736 6.024985893660715 1.1007326338788657 2.9799114574985217 2.1926885042967386 16.87293676105295" Properties=species:S:1:pos:R:3 unique_starting_index=40 config_type=initial n_minim_iter=19 stress="0.012011798441732956 0.00761338061964671 -0.005088580073722655 0.00761338061964671 0.013776804279237703 0.011393431315978588 -0.005088580073722655 0.011393431315978588 0.003246914672933633" pbc="T T T"
Si       9.36034978       3.68773747      14.65859826
Si       2.85350784       2.84632783       5.26346290
Si       6.00675150       1.29567306       7.91838415
Si       5.76625293       4.77888255      14.71971754
Si       5.88176669       3.82693244      16.53170282
Si       6.68035145       6.52869270       8.52962382
Si       5.62841313       2.44254057       2.90793746
Si       5.96294009       5.46032592      11.25063254
Si       4.26946811       2.28791269       0.98816925
Si       6.26015416       6.28874645      16.73527268
Si       5.67430909       3.24228797      11.33503701
Si       4.52030133       5.86631349      13.07109345
Si       2.30441280       2.84963292       1.35735888
Si       1.87617448       0.79631611       8.59087291
Si       4.15795666       2.16436305      16.37407015
Si       7.66271127       5.94875236      10.23466114
Si       4.16345930       4.17388426       6.00626818
Si       5.07239513       7.53726257       7.85670245
Si       4.64830984       3.76182855       4.11026936
Si       5.71772320       1.65429221      10.05628450
Si       7.96558972       3.10988269      16.35529729
Si       4.44900061       2.20734735       6.27877157
22
Lattice="5.3994207619718555 -0.2067490547768326 0.7785395945999513 2.4603162234315405 5.993297359087423 1.1502805077575062 3.1569075686241046 2.2213194772568414 16.941067176462482" Properties=species:S:1:pos:R:3 unique_starting_index=40 config_type=initial n_minim_iter=20 stress="0.01006951042859304 0.014316214385154374 0.0049043012471996165 0.014316214385154374 0.029503164985676796 0.00585956328887709 0.0049043012471996165 0.00585956328887709 0.025442471027544853" pbc="T T T"
Si       9.57378861       3.67037722      14.79319495
Si       2.96527721       2.83758858       5.25672266
Si       6.06560720       1.30296949       7.98475902
Si       5.99500376       4.72846406      14.83900537
Si       6.05605460       3.79564928      16.67989308
Si       6.66930993       6.54940622       8.71017716
Si       5.63978654       2.39702530       2.93464417
Si       5.98983773       5.38518157      11.35311416
Si       4.22328288       2.31337065       1.05933998
Si       6.40773797       6.27336192      16.91316606
Si       5.74734116       3.17730188      11.46187042
Si       4.64413137       5.79549584      13.18725980
Si       2.30426091       2.75331015       1.38598137
Si       1.96901639       0.81872985       8.56319621
Si       4.21755991       2.20220982      16.39907051
Si       7.70422271       5.91498341      10.35030321
Si       4.19860719       4.19808530       6.10839319
Si       5.09814753       7.57129885       7.95262821
Si       4.60160068       3.67155540       4.20767205
Si       5.83773991       1.64680043      10.10810026
Si       8.09627197       3.21941149      16.46192492
Si       4.54256390       2.22845749       6.35492248
22
Lattice="5.398753743649004 -0.22345830933440777 0.8022378173852028 2.4446394511684977 5.991034750274668 1.160921079050039 3.230872215273745 2.218811511816334 16.899781658772742" Properties=species:S:1:pos:R:3 unique_starting_index=40 config_type=initial n_minim_iter=21 stress="0.012854480898213698 0.008642055032801507 0.013085957723702357 0.008642055032801507 0.03351061000826937 0.007185069271015154 0.013085957723702357 0.007185069271015154 0.023252825338408473" pbc="T T T"
Si       9.67363717       3.65059898      14.78827027
Si       3.02046557       2.83486062       5.22412364
Si       6.08500296       1.29878582       7.97976829
Si       6.09757464       4.69526898      14.82541820
Si       6.13149580       3.76678751      16.67527121
Si       6.65808144       6.57156198       8.74816145
Si       5.64053764       2.38019874       2.93256973
Si       5.99831730       5.34602452      11.34363072
Si       4.21406397       2.32727981       1.08466931
Si       6.46782875       6.26097082      16.92126706
Si       5.77640848       3.13527070      11.46865684
Si       4.69639551       5.75486984      13.18162666
Si       2.29350699       2.71288998       1.38936826
Si       2.01170881       0.81545659       8.51082962
Si       4.23419807       2.20275164      16.33523238
Si       7.71663861       5.89984527      10.35534339
Si       4.21530244       4.20615547       6.12656129
Si       5.10578393       7.59599664       7.95311441
Si       4.57881067       3.62481478       4.22839142
Si       5.88766374       1.63605183      10.08617706
Si       8.14510647       3.26288187      16.43667243
Si       4.58013617       2.24067910       6.35982335
