10
Lattice="5.463516984093659 -0.05746713539185298 4.85466036587565e-18 -2.8094743974443617 5.419541345069466 -4.578274589391086e-16 -5.006267470247294e-29 7.257090751106601e-16 8.590595125439117" Properties=species:S:1:pos:R:3 unique_starting_index=14 config_type=initial n_minim_iter=1 energy=-1626.4285083199413 free_energy=-1626.4285083199413 pbc="T T T"
Si       0.35201505       2.90084782       1.02930913
Si       2.30202753       2.46122638       1.02930913
Si       1.88110338       0.51400284       1.28258039
Si       0.77293920       4.84807137       1.28258039
Si       1.77748838       0.79981833       5.73742159
Si       0.87655420       4.56225588       5.73742159
Si       0.88774196       3.58114179       2.84204547
Si       1.76630063       1.78093242       2.84204547
Si      -1.00703790       3.75769766       4.86501731
Si       3.66108048       1.60437655       4.86501731
10
Lattice="5.470137749118185 0.11409061987794239 -9.63805149947851e-18 -2.645535835642617 5.15012890495437 -4.350682612485726e-16 -5.12555123124672e-29 7.387189732418336e-16 8.744600044629497" Properties=species:S:1:pos:R:3 unique_starting_index=14 config_type=initial n_minim_iter=2 stress="0.0033995796001675726 0.007666673033698746 1.6380806541607568e-16 0.007666673033698746 0.06562525640498593 1.4625122955147419e-16 1.6380806541607568e-16 1.4625122955147419e-16 -0.006008301292208284" pbc="T T T"
Si       0.41740585       2.71513837       1.07824699
Si       2.40719606       2.54908115       1.07824699
Si       1.87980003       0.58926341       1.24572227
Si       0.94480188       4.67495611       1.24572227
Si       1.78032011       0.78173817       5.86361391
Si       1.04428181       4.48248136       5.86361391
Si       0.96867782       3.53612007       2.88336354
Si       1.85592409       1.72809945       2.88336354
Si      -0.87275341       3.66888680       4.96789412
Si       3.69735532       1.59533273       4.96789412
10
Lattice="5.472347695370112 0.21922393754271002 -1.8519415550720682e-17 -2.545213016143955 4.881277045790824 -4.123564198445414e-16 -5.939240059900557e-29 7.493400847923859e-16 8.870327656757354" Properties=species:S:1:pos:R:3 unique_starting_index=14 config_type=initial n_minim_iter=3 stress="0.0438813676994276 0.026941046549579798 5.82319343924629e-17 0.026941046549579798 -0.009733895786176134 9.500697867381139e-17 5.82319343924629e-17 9.500697867381139e-17 -0.03545791247168711" pbc="T T T"
Si       0.45232805       2.54427910       1.11952575
Si       2.47480663       2.55622188       1.11952575
Si       1.87776642       0.62773077       1.21594177
Si       1.04936825       4.47277021       1.21594177
Si       1.77656106       0.75261923       5.96513995
Si       1.15057361       4.34788175       5.96513995
Si       1.01510349       3.43415287       2.91794235
Si       1.91203119       1.66634811       2.91794235
Si      -0.78678491       3.54491936       5.05089335
Si       3.71391959       1.55558162       5.05089335
10
Lattice="5.422053203870946 0.2452498541333848 -2.0718011059206318e-17 -2.494603392337578 4.779600184027989 -4.037670473700681e-16 -7.549533322402038e-29 7.608023917131106e-16 9.006012935248515" Properties=species:S:1:pos:R:3 unique_starting_index=14 config_type=initial n_minim_iter=4 stress="-0.013773503267977273 0.03724489877575985 3.903624478169092e-17 0.03724489877575985 -0.039567513399322275 5.409308205462885e-16 3.903624478169092e-17 5.409308205462885e-16 0.019323638295009556" pbc="T T T"
Si       0.45991295       2.46728771       1.15242037
Si       2.46753686       2.55756232       1.15242037
Si       1.85529612       0.64116036       1.20508367
Si       1.07215369       4.38368968       1.20508367
Si       1.75297829       0.73171941       6.06629815
Si       1.17447152       4.29313063       6.06629815
Si       1.00987739       3.39289863       2.95974848
Si       1.91757242       1.63195141       2.95974848
Si      -0.75233124       3.50166765       5.13475860
Si       3.67978104       1.52318239       5.13475860
10
Lattice="5.43448544070363 0.21820096308131925 -1.8432997573961322e-17 -2.5280582734825856 4.757662830640756 -4.0191384206778134e-16 -1.2373163035015749e-28 7.609202833994685e-16 9.007408480353712" Properties=species:S:1:pos:R:3 unique_starting_index=14 config_type=initial n_minim_iter=5 stress="0.026889055666057465 -0.0035066530406351686 4.609217384675661e-17 -0.0035066530406351686 -0.057183564221689236 -2.263767525638173e-16 4.609217384675661e-17 -2.263767525638173e-16 0.013092979606221782" pbc="T T T"
Si       0.44880681       2.43063492       1.16359755
Si       2.45762036       2.54522887       1.16359755
Si       1.85048174       0.63923233       1.18972991
Si       1.05594543       4.33663147       1.18972991
Si       1.74658188       0.70941698       6.07309999
Si       1.15984529       4.26644681       6.07309999
Si       0.98360394       3.37270719       2.95513201
Si       1.92282323       1.60315660       2.95513201
Si      -0.77045522       3.49301308       5.13930944
Si       3.67688238       1.48285072       5.13930944
10
Lattice="5.397335652985337 0.21632085070454016 -1.827417102073833e-17 -2.5107464542488076 4.764647478489623 -4.0250388527861633e-16 -1.5165025864788592e-28 7.48002465843679e-16 8.854493566745509" Properties=species:S:1:pos:R:3 unique_starting_index=14 config_type=initial n_minim_iter=6 stress="-0.021863359515497394 -0.015144894494620087 -5.568666836833786e-17 -0.015144894494620087 0.006708365831671536 1.8335417494912527e-16 -5.568666836833786e-17 1.8335417494912527e-16 -0.04098248909776981" pbc="T T T"
Si       0.45718907       2.40770461       1.16857297
Si       2.42940013       2.57326372       1.16857297
Si       1.83403458       0.65223966       1.14593410
Si       1.05255462       4.32872867       1.14593410
Si       1.72318681       0.69784117       5.97937177
Si       1.16340238       4.28312716       5.97937177
Si       0.96208291       3.37673234       2.88905797
Si       1.92450629       1.60423599       2.88905797
Si      -0.76193002       3.51163166       5.05746438
Si       3.64851922       1.46933667       5.05746438
10
Lattice="5.4450311703254055 0.2288298459500254 -1.933089540801706e-17 -2.5225375845596694 4.795713533798649 -4.051282573898424e-16 -1.7773193307042126e-28 7.467453804949692e-16 8.839612794768817" Properties=species:S:1:pos:R:3 unique_starting_index=14 config_type=initial n_minim_iter=7 stress="0.012658581669517725 -0.024427075688686264 -7.056548149497572e-16 -0.024427075688686264 0.05752112247174062 -1.325606377669131e-15 -7.056548149497572e-16 -1.325606377669131e-15 -0.08053838419773977" pbc="T T T"
Si       0.47686317       2.40215375       1.19350651
Si       2.44563042       2.62238963       1.19350651
Si       1.84893497       0.67245817       1.11764183
Si       1.07355861       4.35208521       1.11764183
Si       1.72772530       0.69545688       5.97927783
Si       1.19476829       4.32908650       5.97927783
Si       0.96270504       3.39821581       2.86865368
Si       1.95978855       1.62632757       2.86865368
Si      -0.75913747       3.54821588       5.05402789
Si       3.68163105       1.47632750       5.05402789
10
Lattice="5.493425560975982 0.2703116407480068 -2.2835159605954993e-17 -2.506297076688627 4.793639132872251 -4.049530178918989e-16 -2.34767450717194e-28 7.612309855079066e-16 9.011086422538733" Properties=species:S:1:pos:R:3 unique_starting_index=14 config_type=initial n_minim_iter=8 stress="0.04632264359087538 -0.008570828528663182 -3.468901239917716e-16 -0.008570828528663182 0.07813877088983184 -2.9968022546034706e-16 -3.468901239917716e-16 -2.9968022546034706e-16 0.023407147778393863" pbc="T T T"
Si       0.51902259       2.38565524       1.22761079
Si       2.46810589       2.67829554       1.22761079
Si       1.87747696       0.71857268       1.13127645
Si       1.10965152       4.34537809       1.13127645
Si       1.73328831       0.70296102       6.10710641
Si       1.25384018       4.36098975       6.10710641
Si       0.99431795       3.40611534       2.90481599
Si       1.99281053       1.65783544       2.90481599
Si      -0.74170866       3.55316705       5.15680514
Si       3.72883714       1.51078372       5.15680514
10
Lattice="5.51293259883427 0.34631627988735003 -2.92558156338716e-17 -2.4417525619187246 4.715930228573654 -3.983883903849784e-16 -5.488788004197749e-28 7.770866555048158e-16 9.198778220901012" Properties=species:S:1:pos:R:3 unique_starting_index=14 config_type=initial n_minim_iter=9 stress="0.034867454607813445 0.017561170620697224 -5.125474488841512e-16 0.017561170620697224 0.001154926950911492 -1.2112305502578099e-15 -5.125474488841512e-16 -1.2112305502578099e-15 0.0014646475322845664" pbc="T T T"
Si       0.58276164       2.31319539       1.28476850
Si       2.48841839       2.74905112       1.28476850
Si       1.90426143       0.79430337       1.13135875
Si       1.16691861       4.26794314       1.13135875
Si       1.72063907       0.70072204       6.25806186
Si       1.35054096       4.36152447       6.25806186
Si       1.03043422       3.38066214       2.92256925
Si       2.04074581       1.68158437       2.92256925
Si      -0.69464481       3.51786189       5.27510988
Si       3.76582484       1.54438462       5.27510988
10
Lattice="5.469250692656195 0.3264290397593224 -2.7575798076763157e-17 -2.4390474097035035 4.713079349507526 -3.981475562202718e-16 -1.1137225693511099e-27 7.822733841145448e-16 9.260176220535437" Properties=species:S:1:pos:R:3 unique_starting_index=14 config_type=initial n_minim_iter=10 stress="-0.0015462611169781 0.05503086560446638 -6.891734382173711e-16 0.05503086560446638 -0.024045155646568825 -1.7327467034198452e-15 -6.891734382173711e-16 -1.7327467034198452e-15 0.036849809726111286" pbc="T T T"
Si       0.56497087       2.27098176       1.30625711
Si       2.46523241       2.76852663       1.30625711
Si       1.89931209       0.80877640       1.11874071
Si       1.13089119       4.23073199       1.11874071
Si       1.69310442       0.68130061       6.30887470
Si       1.33709886       4.35820778       6.30887470
Si       0.99646203       3.36620040       2.93219941
Si       2.03374125       1.67330799       2.93219941
Si      -0.70280388       3.51539582       5.31840898
Si       3.73300716       1.52411257       5.31840898
10
Lattice="5.286843279566145 0.1601501839041422 -1.3529032641745923e-17 -2.5092381680832565 4.803527160553097 -4.057883303909702e-16 -4.403269296719059e-27 7.94173017186918e-16 9.401038355872041" Properties=species:S:1:pos:R:3 unique_starting_index=14 config_type=initial n_minim_iter=11 stress="-0.005134424688243169 -0.0207855038952771 -1.8757643064439909e-16 -0.0207855038952771 0.0670711385846675 -1.0002550358950873e-15 -1.8757643064439909e-16 -1.0002550358950873e-15 0.05604692531193386" pbc="T T T"
Si       0.45164655       2.19701612       1.34519869
Si       2.32595856       2.76666123       1.34519869
Si       1.87217508       0.79718996       1.10226881
Si       0.90543003       4.16648738       1.10226881
Si       1.59807655       0.61166586       6.41969550
Si       1.17952856       4.35201148       6.41969550
Si       0.83179791       3.32675933       2.95695550
Si       1.94580720       1.63691801       2.95695550
Si      -0.80121078       3.53708311       5.41872361
Si       3.57881589       1.42659424       5.41872361
10
Lattice="5.282091085820898 0.11850564904149574 -1.0011020628129318e-17 -2.548310361052923 4.78389023133224 -4.041294583946776e-16 -8.751583398742004e-27 7.799972786091246e-16 9.233232778140744" Properties=species:S:1:pos:R:3 unique_starting_index=14 config_type=initial n_minim_iter=12 stress="-0.03216277133347093 -0.0044067149349921045 3.0959561108024955e-16 -0.0044067149349921045 0.015174453616352604 -1.061425532926064e-15 3.0959561108024955e-16 -1.061425532926064e-15 0.042252232032972604" pbc="T T T"
Si       0.43694417       2.15141446       1.29899591
Si       2.29683655       2.75098142       1.29899591
Si       1.89963274       0.78922053       1.07522701
Si       0.83414798       4.11317535       1.07522701
Si       1.58907547       0.58565045       6.30167414
Si       1.14470525       4.31674543       6.30167414
Si       0.80311453       3.27804121       2.91968342
Si       1.93066619       1.62435467       2.91968342
Si      -0.83803873       3.49824597       5.33948232
Si       3.57181945       1.40414991       5.33948232
10
Lattice="5.354077579148126 0.08799139178402329 -7.433262857722141e-18 -2.616417338285604 4.705825820607061 -3.975347987370758e-16 -2.3093187533109623e-26 7.659836636330462e-16 9.06734634202466" Properties=species:S:1:pos:R:3 unique_starting_index=14 config_type=initial n_minim_iter=13 stress="-0.010577193445344158 -0.02621431172597844 1.4832347603963057e-16 -0.02621431172597844 -0.0017710593340394618 -2.3948462543671523e-15 1.4832347603963057e-16 -2.3948462543671523e-15 -0.004827038616689822" pbc="T T T"
Si       0.44076823       2.06153406       1.25964092
Si       2.29689200       2.73228316       1.25964092
Si       1.97571782       0.77783182       1.03710776
Si       0.76194242       4.01598539       1.03710776
Si       1.60205597       0.53997208       6.18343078
Si       1.13560427       4.25384514       6.18343078
Si       0.76971120       3.20510937       2.87602079
Si       1.96794904       1.58870784       2.87602079
Si      -0.87989370       3.42951304       5.27460322
Si       3.61755394       1.36430417       5.27460322
10
Lattice="5.3672379222754225 0.07327426954394478 -6.190002184376912e-18 -2.637896332910726 4.695086597342722 -3.966275796867777e-16 -3.9887973249459484e-26 7.633386862958639e-16 9.03603637256468" Properties=species:S:1:pos:R:3 unique_starting_index=14 config_type=initial n_minim_iter=14 stress="-0.0052886023154859905 -0.02558899878401932 5.757928792353599e-17 -0.02558899878401932 -0.031003948887267384 -3.7281379281583595e-15 5.757928792353599e-17 -3.7281379281583595e-15 -0.023102572509902084" pbc="T T T"
Si       0.43823864       2.03731044       1.25302168
Si       2.29110295       2.73105043       1.25302168
Si       1.99025511       0.77420475       1.02807809
Si       0.73908648       3.99415611       1.02807809
Si       1.60391013       0.52390754       6.15960772
Si       1.12543145       4.24445333       6.15960772
Si       0.75778780       3.18701746       2.86615432
Si       1.97155378       1.58134341       2.86615432
Si      -0.89388422       3.42027806       5.26651471
Si       3.62322580       1.34808281       5.26651471
10
Lattice="5.386256559286366 0.004094307947321851 -3.4587554665763916e-19 -2.7155018472270283 4.770903676506548 -4.0303239121799436e-16 -6.470845700101804e-26 7.614409891467563e-16 9.013572346961388" Properties=species:S:1:pos:R:3 unique_starting_index=14 config_type=initial n_minim_iter=15 stress="0.029635378168860756 -0.014426721437828383 4.03892056333541e-16 -0.014426721437828383 -0.004691431609567721 -6.057901732243526e-15 4.03892056333541e-16 -6.057901732243526e-15 -0.04704287693706862" pbc="T T T"
Si       0.41988164       1.98088351       1.25096973
Si       2.25087306       2.79411448       1.25096973
Si       2.02830954       0.79589803       1.00950895
Si       0.64244517       3.97909995       1.00950895
Si       1.61405205       0.48082114       6.14038464
Si       1.05670265       4.29417684       6.14038464
Si       0.70480891       3.16549892       2.84199956
Si       1.96594580       1.60949906       2.84199956
Si      -0.94711274       3.44537883       5.28931143
Si       3.61786744       1.32961916       5.28931143
10
Lattice="5.371668210404361 0.011725398020063706 -9.905283783129102e-19 -2.7002168192925784 4.791218050489039 -4.047484918731782e-16 -9.288102089712857e-26 7.729899691834278e-16 9.1502836210914" Properties=species:S:1:pos:R:3 unique_starting_index=14 config_type=initial n_minim_iter=16 stress="-0.017595856298037303 0.003601426942221508 6.963936412867044e-16 0.003601426942221508 0.021889239979642844 -4.5738795344550685e-15 6.963936412867044e-16 -4.5738795344550685e-15 -0.029698398406110424" pbc="T T T"
Si       0.42574361       1.98980126       1.27138858
Si       2.24570778       2.81314219       1.27138858
Si       2.03162742       0.81565298       1.03744717
Si       0.63982397       3.98729047       1.03744717
Si       1.63334635       0.48209500       6.22816931
Si       1.03810504       4.32084845       6.22816931
Si       0.70002571       3.17146687       2.86597528
Si       1.97142568       1.63147658       2.86597528
Si      -0.93220430       3.44930148       5.37994191
Si       3.60365569       1.35364197       5.37994191
10
Lattice="5.343444584836171 -0.009787280177993733 8.268015249225456e-19 -2.7070406178326976 4.791450466470769 -4.0476812581988716e-16 -1.6248460632147704e-25 7.886791910301927e-16 9.336005088601642" Properties=species:S:1:pos:R:3 unique_starting_index=14 config_type=initial n_minim_iter=17 stress="0.01804779436697214 0.0009803953155018187 6.760438977970654e-16 0.0009803953155018187 0.03656378832287173 -4.513313697328826e-15 6.760438977970654e-16 -4.513313697328826e-15 0.020927463275068472" pbc="T T T"
Si       0.41174570       1.95932433       1.29876510
Si       2.22465827       2.82233886       1.29876510
Si       2.04617282       0.82552944       1.06435424
Si       0.59023115       3.95613375       1.06435424
Si       1.65828875       0.46166186       6.34709757
Si       0.97811522       4.32000133       6.34709757
Si       0.66270019       3.14930026       2.90055922
Si       1.97370377       1.63236292       2.90055922
Si      -0.93052340       3.42929175       5.51278572
Si       3.56692737       1.35237144       5.51278572
10
Lattice="5.338168529991591 -0.017460548396715514 1.4750173250929337e-18 -2.712025671444097 4.783214946961067 -4.0407241276722134e-16 -3.275205592179265e-25 7.949688555193869e-16 9.410459118406603" Properties=species:S:1:pos:R:3 unique_starting_index=14 config_type=initial n_minim_iter=18 stress="-0.00558349301324437 -0.015052803866129361 4.219394016018917e-16 -0.015052803866129361 -0.04451055372178752 -7.660294791616571e-15 4.219394016018917e-16 -7.660294791616571e-15 0.003920128200286865" pbc="T T T"
Si       0.41401208       1.94966475       1.30786236
Si       2.21213077       2.81608965       1.30786236
Si       2.05960041       0.82506774       1.07667471
Si       0.56654244       3.94068666       1.07667471
Si       1.69257480       0.45016245       6.38663019
Si       0.93356805       4.31559194       6.38663019
Si       0.64825039       3.13060387       2.91226800
Si       1.97789246       1.63515053       2.91226800
Si      -0.92075011       3.40888056       5.57668587
Si       3.54689296       1.35687384       5.57668587
10
Lattice="5.338177796337648 -0.007465822165374496 6.306887348139216e-19 -2.702161000859298 4.778951585003217 -4.037122620143891e-16 -4.391342274617746e-24 8.028893581887442e-16 9.50421835765015" Properties=species:S:1:pos:R:3 unique_starting_index=14 config_type=initial n_minim_iter=19 stress="-0.010511326650000524 -0.012360782238642598 -3.7766333236256805e-16 -0.012360782238642598 -0.08343943984784888 -7.579845713869931e-15 -3.7766333236256805e-16 -7.579845713869931e-15 -0.01549600889810675" pbc="T T T"
Si       0.42439846       1.94432700       1.31679325
Si       2.21161833       2.82715877       1.31679325
Si       2.09219297       0.84112970       1.09190033
Si       0.54382382       3.93035606       1.09190033
Si       1.77212939       0.44182931       6.42768967
Si       0.86388740       4.32965646       6.42768967
Si       0.63557933       3.11278325       2.92461567
Si       2.00043747       1.65870251       2.92461567
Si      -0.88350843       3.37707519       5.67109000
Si       3.51952522       1.39441058       5.67109000
10
Lattice="5.357089321047348 -0.010724302643435976 9.059529550093962e-19 -2.7149718432387218 4.792849254262595 -4.048863047009679e-16 -9.272053877839065e-24 7.918916644309532e-16 9.37403311113949" Properties=species:S:1:pos:R:3 unique_starting_index=14 config_type=initial n_minim_iter=20 stress="0.030225958084686533 -0.027892521087479805 -2.0313424161344435e-16 -0.027892521087479805 -0.0183046890009623 -4.086005728435932e-15 -2.0313424161344435e-16 -4.086005728435932e-15 0.003063367887897959" pbc="T T T"
Si       0.42852887       1.94385563       1.28869839
Si       2.21358861       2.83826932       1.28869839
Si       2.09866858       0.84088891       1.06744042
Si       0.54344889       3.94123604       1.06744042
Si       1.77047331       0.44898802       6.33888257
Si       0.87164417       4.33313693       6.33888257
Si       0.63524829       3.11506396       2.90019870
Si       2.00686919       1.66706099       2.90019870
Si      -0.88529238       3.38277040       5.59809057
Si       3.52740985       1.39935455       5.59809057
10
Lattice="5.3782271640852635 -0.018873717799916298 1.5943885565651478e-18 -2.7336666141461747 4.817439358408972 -4.069636160250962e-16 -1.5694129589654383e-23 7.78282774905724e-16 9.212937837335051" Properties=species:S:1:pos:R:3 unique_starting_index=14 config_type=initial n_minim_iter=21 stress="-0.001781807238266634 -0.0005789215274495844 -5.510093532098156e-16 -0.0005789215274495844 0.040071402856820704 -4.103008522305309e-15 -5.510093532098156e-16 -4.103008522305309e-15 0.029222659478546114" pbc="T T T"
Si       0.43652025       1.93487418       1.24521403
Si       2.20804030       2.86369147       1.24521403
Si       2.12061264       0.84871935       1.03660469
Si       0.52394791       3.94984629       1.03660469
Si       1.80335738       0.45101703       6.21921415
Si       0.84120317       4.34754861       6.21921415
Si       0.61965465       3.10652567       2.86718603
Si       2.02490589       1.69203997       2.86718603
Si      -0.87523741       3.37784187       5.52962009
Si       3.51979796       1.42072377       5.52962009
