6
Lattice="3.90843 0.0 0.0 0.0 3.90843 0.0 0.0 0.0 8.06157" Properties=species:S:1:pos:R:3 unique_starting_index=46 config_type=initial n_minim_iter=1 pbc="T T T"
Si       2.98684957       0.92158043       6.34207259
Si       0.92158043       2.98684957       6.34207259
Si       2.98684957       2.98684957       1.71949741
Si       0.92158043       0.92158043       1.71949741
Si       1.95421500       1.95421500       6.99577563
Si       1.95421500       1.95421500       1.06579437
6
Lattice="3.924545999056645 0.0 0.0 0.0 3.924545999056645 0.0 0.0 0.0 8.083260773208918" Properties=species:S:1:pos:R:3 unique_starting_index=46 config_type=initial n_minim_iter=2 pbc="T T T"
Si       2.99968610       0.92485990       6.35867222
Si       0.92485990       2.99968610       6.35867222
Si       2.99968610       2.99968610       1.72458855
Si       0.92485990       0.92485990       1.72458855
Si       1.96227300       1.96227300       7.01516023
Si       1.96227300       1.96227300       1.06810054
6
Lattice="4.518887846780797 0.0 0.0 0.0 4.518887846780797 0.0 0.0 0.0 8.85071987709725" Properties=species:S:1:pos:R:3 unique_starting_index=46 config_type=initial n_minim_iter=3 pbc="T T T"
Si       3.47533815       1.04354970       6.94475995
Si       1.04354970       3.47533815       6.94475995
Si       3.47533815       3.47533815       1.90595993
Si       1.04354970       1.04354970       1.90595993
Si       2.25944392       2.25944392       7.70353652
Si       2.25944392       2.25944392       1.14718336
6
Lattice="4.934665362219153 0.0 0.0 0.0 4.934665362219153 0.0 0.0 0.0 9.068008948173853" Properties=species:S:1:pos:R:3 unique_starting_index=46 config_type=initial n_minim_iter=4 pbc="T T T"
Si       3.83075380       1.10391156       7.09098106
Si       1.10391156       3.83075380       7.09098106
Si       3.83075380       3.83075380       1.97702789
Si       1.10391156       1.10391156       1.97702789
Si       2.46733268       2.46733268       7.93538038
Si       2.46733268       2.46733268       1.13262857
6
Lattice="4.922810866983579 0.0 0.0 0.0 4.922810866983579 0.0 0.0 0.0 8.818901842520843" Properties=species:S:1:pos:R:3 unique_starting_index=46 config_type=initial n_minim_iter=5 pbc="T T T"
Si       3.82388947       1.09892139       6.89080986
Si       1.09892139       3.82388947       6.89080986
Si       3.82388947       3.82388947       1.92809199
Si       1.09892139       1.09892139       1.92809199
Si       2.46140543       2.46140543       7.72209351
Si       2.46140543       2.46140543       1.09680833
6
Lattice="4.934376590818228 0.0 0.0 0.0 4.934376590818228 0.0 0.0 0.0 8.277793347719673" Properties=species:S:1:pos:R:3 unique_starting_index=46 config_type=initial n_minim_iter=6 pbc="T T T"
Si       3.83819750       1.09617909       6.45526449
Si       1.09617909       3.83819750       6.45526449
Si       3.83819750       3.83819750       1.82252886
Si       1.09617909       1.09617909       1.82252886
Si       2.46718830       2.46718830       7.26137700
Si       2.46718830       2.46718830       1.01641635
6
Lattice="4.997502815878977 0.0 0.0 0.0 4.997502815878977 0.0 0.0 0.0 8.51522776123072" Properties=species:S:1:pos:R:3 unique_starting_index=46 config_type=initial n_minim_iter=7 pbc="T T T"
Si       3.88789146       1.10961136       6.63997770
Si       1.10961136       3.88789146       6.63997770
Si       3.88789146       3.88789146       1.87525006
Si       1.10961136       1.10961136       1.87525006
Si       2.49875141       2.49875141       7.46485920
Si       2.49875141       2.49875141       1.05036856
6
Lattice="5.004164421277387 0.0 0.0 0.0 5.004164421277387 0.0 1.7506460798417835e-49 1.7506460798417835e-49 8.404670152191386" Properties=species:S:1:pos:R:3 unique_starting_index=46 config_type=initial n_minim_iter=8 pbc="T T T"
Si       3.89351255       1.11065187       6.55134684
Si       1.11065187       3.89351255       6.55134684
Si       3.89351255       3.89351255       1.85332331
Si       1.11065187       1.11065187       1.85332331
Si       2.50208221       2.50208221       7.37205568
Si       2.50208221       2.50208221       1.03261447
