22
Lattice="8.650723229100729 0.5601699795745232 -0.09232543054507775 -3.1339947744792567 8.082504534242844 0.09232543054507261 -2.83618624697852 -4.271662477462699 6.990441619006067" Properties=species:S:1:pos:R:3 unique_starting_index=6 config_type=initial n_minim_iter=10 energy=-3598.2160171132095 free_energy=-3598.2160171132095 pbc="T T T"
Si      -2.43113420       4.87365206       6.01115013
Si       2.07728861       1.43424809       4.57915920
Si       6.17859330       3.28005979      -0.17721129
Si      -0.44632895      -0.85700059       3.54722046
Si       6.24090277      -1.22343949       2.31895699
Si      -0.52597276       3.65756342       1.07161691
Si       2.09110925       3.60535655       3.44322115
Si      -2.46228918       2.71360834       7.16765290
Si       0.06015300       5.56228334       1.61695786
Si       1.61371174       5.53333971       2.94205106
Si       1.42712332       4.05590134       1.54340121
Si       1.96317124       5.94410284       0.97930888
Si       1.50344608      -0.47831237       4.04839055
Si       2.18377360      -1.87528659       5.37348376
Si       1.72890171       0.01160401       6.01113274
Si       0.24188815      -1.26958410       5.44704040
Si      -1.37625887       1.86400694       1.36147522
Si       3.38119106       2.93825553       4.82745177
Si      -1.59457080       0.03231122       2.16298985
Si      -3.70000020       3.34728042       5.72129182
Si       2.75836423       4.32133726      -0.00000000
Si       2.90726849      -1.85574624       3.44905809
