16
Lattice="6.686459594389773 -1.4586654535198187 -0.8735732059810102 -0.5005417169120864 5.460506412319678 -0.4727256590679559 0.06256282120171561 0.6341033014920846 9.393223841211661" Properties=species:S:1:pos:R:3 unique_starting_index=30 config_type=initial n_minim_iter=1 energy=-2623.939330774952 free_energy=-2623.939330774952 pbc="T T T"
Si       3.36424859       2.57066310       4.97949018
Si       2.88423210       2.06528116       3.06743480
Si       1.17112691       2.74132101       2.23643167
Si       5.07735378       1.89462325       5.81049331
Si       3.57255650       2.51888531       7.03074740
Si       2.67592420       2.11705895       1.01617757
Si       4.07112700       2.03916572      -0.43506399
Si       2.17735369       2.59677854       8.48198896
Si       1.52583680       3.00524914       4.22820370
Si       4.72264390       1.63069512       3.81872127
Si       6.57637352       2.06376366       4.47058762
Si      -0.32789282       2.57218060       3.57633736
Si       1.12822266       1.18136384       3.48924428
Si       5.12025804       3.45458042       4.55768070
Si       3.05388768       3.73435198      -0.77782563
Si       3.19459302       0.90159228       8.82475061
16
Lattice="6.684555700439956 -1.4574225247748254 -0.8759125527738765 -0.49928381002365524 5.460010305733003 -0.47239514396370136 0.05917516208009628 0.6341744110251856 9.391563768510224" Properties=species:S:1:pos:R:3 unique_starting_index=30 config_type=initial n_minim_iter=2 stress="-0.0023379993776028634 0.0004877663180295378 0.0011297632188024588 0.0004877663180295378 -0.002300866331568224 -3.385635735569278e-05 0.0011297632188024588 -3.385635735569278e-05 -0.00226302015150785" pbc="T T T"
Si       3.36169206       2.57106262       4.97728622
Si       2.88275499       2.06569958       3.06596985
Si       1.17044523       2.74145449       2.23559530
Si       5.07400183       1.89530770       5.80766078
Si       3.56932400       2.51936949       7.02836636
Si       2.67512306       2.11739270       1.01488971
Si       4.07034956       2.03969098      -0.43652736
Si       2.17409749       2.59707121       8.47978343
Si       1.52438367       3.00529328       4.22701510
Si       4.72006338       1.63146891       3.81624097
Si       6.57313681       2.06481916       4.46752281
Si      -0.32868976       2.57194303       3.57573326
Si       1.12677751       1.18144383       3.48828358
Si       5.11766954       3.45531836       4.55497249
Si       3.05394191       3.73457971      -0.77880894
Si       3.19050514       0.90218248       8.82206501
16
Lattice="6.685737234963728 -1.4576179621701135 -0.8782674954153031 -0.49905921172193857 5.461338068110321 -0.47226881337637067 0.05614696994934833 0.63442518758042 9.393345905707136" Properties=species:S:1:pos:R:3 unique_starting_index=30 config_type=initial n_minim_iter=3 stress="0.00402280232342991 0.0008222182058908571 -0.001990575929909123 0.0008222182058908571 0.0037106837396146896 -0.0005261375124980123 -0.001990575929909123 -0.0005261375124980123 0.002898597885479425" pbc="T T T"
Si       3.36035891       2.57177025       4.97698042
Si       2.88246608       2.06637504       3.06582917
Si       1.16995578       2.74240506       2.23556491
Si       5.07286921       1.89574024       5.80724469
Si       3.56757354       2.52010725       7.02880159
Si       2.67525145       2.11803804       1.01400800
Si       4.07103691       2.04021448      -0.43793312
Si       2.17178808       2.59793081       8.48074272
Si       1.52336489       3.00606840       4.22751433
Si       4.71946010       1.63207689       3.81529527
Si       6.57271930       2.06559353       4.46652157
Si      -0.32989431       2.57255176       3.57628802
Si       1.12582953       1.18165541       3.48869349
Si       5.11699547       3.45648988       4.55411611
Si       3.05473828       3.73561620      -0.77998823
Si       3.18808671       0.90252909       8.82279782
16
Lattice="6.684404645500263 -1.4599313292187823 -0.8778731236239852 -0.5009640395124043 5.46047926246275 -0.4715044530229287 0.056771572552621614 0.635692901583653 9.393544024392165" Properties=species:S:1:pos:R:3 unique_starting_index=30 config_type=initial n_minim_iter=4 stress="0.00015011991024604904 -0.0027753043239546614 -0.0006493938220856624 -0.0027753043239546614 0.0023342650932769104 -0.0010983749590848537 -0.0006493938220856624 -0.0010983749590848537 0.0019178586465666832" pbc="T T T"
Si       3.35838099       2.57065391       4.97708198
Si       2.88183119       2.06558692       3.06708447
Si       1.16881935       2.74248107       2.23586110
Si       5.07139283       1.89375977       5.80830534
Si       3.56618078       2.51921812       7.03033853
Si       2.67403139       2.11702271       1.01382792
Si       4.06886878       2.03795648      -0.43713137
Si       2.17134340       2.59828435       8.48129782
Si       1.52236123       3.00539253       4.22863408
Si       4.71785095       1.63084830       3.81553237
Si       6.57083580       2.06365369       4.46841083
Si      -0.33062362       2.57258715       3.57575562
Si       1.12559468       1.18132421       3.48924985
Si       5.11461750       3.45491662       4.55491660
Si       3.05251572       3.73385208      -0.77943343
Si       3.18769646       0.90238875       8.82359988
16
Lattice="6.685391014198859 -1.4576701694375787 -0.8768288609666015 -0.49945835353327284 5.458760547482017 -0.4701135798023089 0.05890238917779003 0.6380494924591296 9.39297810706741" Properties=species:S:1:pos:R:3 unique_starting_index=30 config_type=initial n_minim_iter=5 stress="0.002293625965516422 0.00038507601772007935 0.0007517136682658701 0.00038507601772007935 0.0011635408381270847 0.000333032641558379 0.0007517136682658701 0.000333032641558379 0.001485218027616355" pbc="T T T"
Si       3.36074677       2.57218330       4.97775688
Si       2.88408828       2.06695657       3.06827879
Si       1.17049847       2.74308239       2.23656314
Si       5.07433658       1.89605748       5.80947253
Si       3.56921698       2.52139302       7.03150588
Si       2.67561807       2.11774685       1.01452979
Si       4.07037645       2.03852697      -0.43559420
Si       2.17445860       2.60061290       8.48162987
Si       1.52449636       3.00606358       4.22970147
Si       4.72033869       1.63307629       3.81633420
Si       6.57412591       2.06646119       4.47051687
Si      -0.32929086       2.57267868       3.57551880
Si       1.12703981       1.18224727       3.48962419
Si       5.11779524       3.45689260       4.55641148
Si       3.05440519       3.73378284      -0.77794141
Si       3.19042986       0.90535703       8.82397707
16
Lattice="6.686734053401099 -1.4557616097354096 -0.8782111808059134 -0.49848486589916396 5.454996450331211 -0.468285649645079 0.057127703093825866 0.6402672411832961 9.389073306785972" Properties=species:S:1:pos:R:3 unique_starting_index=30 config_type=initial n_minim_iter=6 stress="0.002666077283559477 -0.0003103245956451445 -0.00042898036298041496 -0.0003103245956451445 -0.0018883101294245033 -0.0011947781173173308 -0.00042898036298041496 -0.0011947781173173308 -0.001247124202234436" pbc="T T T"
Si       3.36092251       2.57150865       4.97496699
Si       2.88445438       2.06799343       3.06760948
Si       1.17191510       2.74395241       2.23581033
Si       5.07346179       1.89554968       5.80676614
Si       3.56927055       2.52127465       7.02885590
Si       2.67610634       2.11822743       1.01372057
Si       4.07261473       2.03730427      -0.43507761
Si       2.17276216       2.60219781       8.47765409
Si       1.52291190       3.00454303       4.22947712
Si       4.72246499       1.63495905       3.81309936
Si       6.57520281       2.06732285       4.46989242
Si      -0.32982592       2.57217923       3.57268405
Si       1.12790647       1.18282601       3.48870388
Si       5.11747042       3.45667607       4.55387259
Si       3.05656994       3.73310474      -0.77834344
Si       3.18880695       0.90639734       8.82091991
16
Lattice="6.683972476912882 -1.4552625550920386 -0.8784062739841708 -0.49745688744276617 5.455813384707854 -0.4665888238024902 0.05778065703390212 0.6434872131552511 9.390627798113757" Properties=species:S:1:pos:R:3 unique_starting_index=30 config_type=initial n_minim_iter=7 stress="-0.001563919827601135 0.0008558975118008172 0.0006499825730298626 0.0008558975118008172 0.0016593727886084816 -0.0002263113540615505 0.0006499825730298626 -0.0002263113540615505 0.00042231245217092206" pbc="T T T"
Si       3.36043509       2.57385778       4.97662748
Si       2.88386116       2.07018026       3.06900522
Si       1.17242807       2.74599782       2.23702407
Si       5.07186817       1.89804023       5.80860863
Si       3.56885901       2.52426117       7.03095864
Si       2.67543724       2.11977687       1.01467406
Si       4.07154158       2.03801849      -0.43401865
Si       2.17275467       2.60601955       8.47965135
Si       1.52255263       3.00660021       4.23159430
Si       4.72174361       1.63743783       3.81403840
Si       6.57337226       2.07006637       4.47214537
Si      -0.32907601       2.57397167       3.57348733
Si       1.12823111       1.18428953       3.48971652
Si       5.11606514       3.45974851       4.55591618
Si       3.05623543       3.73430653      -0.77743068
Si       3.18806081       0.90973151       8.82306338
16
Lattice="6.684920119469308 -1.4553022407108525 -0.8799104064211057 -0.49754128746623144 5.453656833900346 -0.4636567913087117 0.05679046717983691 0.64824207224172 9.391243564620341" Properties=species:S:1:pos:R:3 unique_starting_index=30 config_type=initial n_minim_iter=8 stress="-0.0009702918378225536 1.2493572601702209e-05 -0.0007997021514965668 1.2493572601702209e-05 -0.00314194280155695 0.002394701242074586 -0.0007997021514965668 0.002394701242074586 0.0019253989390428546" pbc="T T T"
Si       3.36029943       2.57502642       4.97781845
Si       2.88386987       2.07157024       3.06985792
Si       1.17280723       2.74708056       2.23837451
Si       5.07136207       1.89951610       5.80930186
Si       3.56868471       2.52647028       7.03215639
Si       2.67548459       2.12012638       1.01551998
Si       4.07194338       2.03658161      -0.43323317
Si       2.17222592       2.61001505       8.48090954
Si       1.52146776       3.00766544       4.23382220
Si       4.72270154       1.63893122       3.81385417
Si       6.57362388       2.07118193       4.47317400
Si      -0.32945458       2.57541474       3.57450236
Si       1.12839306       1.18549896       3.49028173
Si       5.11577623       3.46109771       4.55739464
Si       3.05700306       3.73241936      -0.77640450
Si       3.18716624       0.91417731       8.82408087
16
Lattice="6.6863214603992915 -1.4546376132237366 -0.8788774211564441 -0.49695306347282814 5.4540556727001555 -0.4626129072253231 0.057951206276906315 0.6497380824809584 9.385939922645434" Properties=species:S:1:pos:R:3 unique_starting_index=30 config_type=initial n_minim_iter=9 stress="-0.000514646420440802 0.00024254306906069172 -3.848158161237848e-06 0.00024254306906069172 -0.00035511606249469095 0.0012008929413748104 -3.848158161237848e-06 0.0012008929413748104 -0.0031700404346522966" pbc="T T T"
Si       3.36201163       2.57576224       4.97574743
Si       2.88530797       2.07339390       3.06870217
Si       1.17435405       2.74907423       2.23756850
Si       5.07296555       1.90008191       5.80688109
Si       3.57094501       2.52750208       7.02895319
Si       2.67637460       2.12165406       1.01549641
Si       4.07294717       2.03666099      -0.43206479
Si       2.17437244       2.61249516       8.47651438
Si       1.52182834       3.00865302       4.23284169
Si       4.72549126       1.64050312       3.81160791
Si       6.57592375       2.07232091       4.47213693
Si      -0.32860414       2.57683523       3.57231266
Si       1.12967695       1.18599808       3.48852076
Si       5.11764266       3.46315806       4.55592883
Si       3.05869081       3.73285642      -0.77586090
Si       3.18862880       0.91629972       8.82031049
16
Lattice="6.685972802216524 -1.4524380653789901 -0.8780533568359522 -0.49562051835295473 5.452831100574838 -0.4638713668061106 0.05920985986386878 0.6477761747487203 9.38841728257043" Properties=species:S:1:pos:R:3 unique_starting_index=30 config_type=initial n_minim_iter=10 stress="-0.001703040535061085 0.001272660870558101 0.000523590266683804 0.001272660870558101 -0.002964411964870566 -0.0008969234574600657 0.000523590266683804 -0.0008969234574600657 -0.00024746153384228107" pbc="T T T"
Si       3.36321044       2.57453224       4.97691001
Si       2.88635170       2.07363697       3.06958255
Si       1.17570556       2.74930317       2.23780908
Si       5.07385659       1.89886604       5.80868348
Si       3.57264325       2.52585865       7.03076010
Si       2.67691889       2.12231056       1.01573246
Si       4.07327172       2.03683203      -0.43198678
Si       2.17629043       2.61133718       8.47847934
Si       1.52270945       3.00723115       4.23413949
Si       4.72685270       1.64093806       3.81235307
Si       6.57679529       2.07216152       4.47398199
Si      -0.32723314       2.57600769       3.57251057
Si       1.13071604       1.18542991       3.48927333
Si       5.11884610       3.46273930       4.55721923
Si       3.06001412       3.73270819      -0.77711126
Si       3.18954802       0.91546102       8.82360382
16
Lattice="6.691277673111868 -1.4471827621550972 -0.8781651800060326 -0.4896895465013145 5.457801005760208 -0.4566440329682927 0.06242512005963584 0.6610947605981577 9.38779619388929" Properties=species:S:1:pos:R:3 unique_starting_index=30 config_type=initial n_minim_iter=11 stress="-0.002454474054540591 -0.0006950520129233156 -0.001027356891284616 -0.0006950520129233156 -0.0001615426927138901 -8.126291995262129e-05 -0.001027356891284616 -8.126291995262129e-05 -0.0012599984008530313" pbc="T T T"
Si       3.37015705       2.58283032       4.97858230
Si       2.89385620       2.08888269       3.07440468
Si       1.18369385       2.76567177       2.24385814
Si       5.08031940       1.90604124       5.80912884
Si       3.58311803       2.53581220       7.03363134
Si       2.68089521       2.13590080       1.01935564
Si       4.07836593       2.03774587      -0.42758097
Si       2.18564731       2.63396713       8.48056795
Si       1.52773095       3.01403408       4.24312158
Si       4.73628230       1.65767892       3.80986540
Si       6.58338863       2.08304115       4.47968818
Si      -0.31937539       2.58867185       3.57329880
Si       1.13790048       1.19680399       3.48723976
Si       5.12611277       3.47490901       4.56574722
Si       3.07201939       3.73787873      -0.77839238
Si       3.19199386       0.93383427       8.83137936
16
Lattice="6.6966561717793445 -1.4412936826650335 -0.877199288189524 -0.48472411871147747 5.458366632441548 -0.452789197852607 0.06619508716948337 0.6683419837870453 9.389505085377504" Properties=species:S:1:pos:R:3 unique_starting_index=30 config_type=initial n_minim_iter=12 stress="-0.0022962682207733876 -0.0006359718541229536 -0.0013795202689149892 -0.0006359718541229536 0.0004709676149672228 -0.0004384451963652246 -0.0013795202689149892 -0.0004384451963652246 -0.0006928792210023344" pbc="T T T"
Si       3.37871529       2.58764962       4.98292327
Si       2.89941185       2.09776531       3.07659333
Si       1.19124785       2.77838380       2.24760066
Si       5.08687929       1.90703113       5.81191594
Si       3.59268350       2.54022091       7.03915732
Si       2.68544364       2.14519402       1.02035928
Si       4.08271428       2.03885538      -0.42531041
Si       2.19541286       2.64655955       8.48482701
Si       1.53450139       3.01679587       4.25112732
Si       4.74362575       1.66861906       3.80838928
Si       6.59211122       2.08959642       4.48387146
Si      -0.31398408       2.59581852       3.57564514
Si       1.14550788       1.20433912       3.48551959
Si       5.13261926       3.48107581       4.57399701
Si       3.08375230       3.74143377      -0.78042332
Si       3.19437484       0.94398116       8.83993992
16
Lattice="6.699624982232103 -1.4364949930609137 -0.8742564565516552 -0.4816916567355337 5.453348645051981 -0.447901353939509 0.07247137934237965 0.6766727209925983 9.388295269279833" Properties=species:S:1:pos:R:3 unique_starting_index=30 config_type=initial n_minim_iter=13 stress="-0.0009535902266005137 0.00031629513155462317 -0.0001942799612321454 0.00031629513155462317 2.3508939842211996e-05 -0.0003202350386996417 -0.0001942799612321454 -0.0003202350386996417 -0.0008219493224228882" pbc="T T T"
Si       3.38416032       2.58913001       4.98926291
Si       2.90624438       2.10439636       3.07687455
Si       1.19752424       2.79084762       2.25200636
Si       5.09288046       1.90267876       5.81413110
Si       3.60145230       2.54148248       7.04283340
Si       2.68895240       2.15204389       1.02330406
Si       4.08611707       2.03503154      -0.42050926
Si       2.20428763       2.65849484       8.48664671
Si       1.54109650       3.01764976       4.25898326
Si       4.74930821       1.67587662       3.80715420
Si       6.59685348       2.09329218       4.48810375
Si      -0.30644877       2.60023419       3.57803371
Si       1.15063022       1.21031133       3.48173742
Si       5.13977449       3.48321505       4.58440004
Si       3.09317789       3.74186942      -0.78108695
Si       3.19722681       0.95165695       8.84722441
16
Lattice="6.705892501087218 -1.4416144209096 -0.8695021091941986 -0.48636112484203403 5.451227432207817 -0.44193590620188594 0.08012570429095431 0.6868013695339807 9.38211548755306" Properties=species:S:1:pos:R:3 unique_starting_index=30 config_type=initial n_minim_iter=14 stress="0.004074990654276022 0.0005389280620431545 0.00035524682651149426 0.0005389280620431545 0.0025719144374986114 9.130323660725514e-05 0.00035524682651149426 9.130323660725514e-05 0.0014029669717888415" pbc="T T T"
Si       3.38928933       2.58493514       4.99227907
Si       2.91036775       2.11147924       3.07839841
Si       1.20289603       2.80978987       2.25720845
Si       5.09676105       1.88662451       5.81346902
Si       3.60972855       2.53808459       7.04135599
Si       2.68992853       2.15832979       1.02932148
Si       4.08816926       2.02783054      -0.41511314
Si       2.21148782       2.66858384       8.48579061
Si       1.54608321       3.01852173       4.26242095
Si       4.75357387       1.67789265       3.80825652
Si       6.60174968       2.09120324       4.49296686
Si      -0.30209260       2.60521114       3.57771061
Si       1.15451151       1.21535321       3.47129360
Si       5.14514557       3.48106117       4.59938387
Si       3.10326820       3.73687639      -0.78007220
Si       3.19638888       0.95953799       8.85074967
16
Lattice="6.707246829525252 -1.4534340387834526 -0.8621303365610298 -0.49490588867515733 5.45583428588577 -0.4363842859226905 0.09348508236786937 0.698977407262034 9.393255474121952" Properties=species:S:1:pos:R:3 unique_starting_index=30 config_type=initial n_minim_iter=15 stress="0.011905178114122242 0.0010327072650152516 -0.0014373461739884813 0.0010327072650152516 0.010358695041966662 -0.001210240695644458 -0.0014373461739884813 -0.001210240695644458 0.009350609516815137" pbc="T T T"
Si       3.38981345       2.57607248       5.00830690
Si       2.91601257       2.12530517       3.08643396
Si       1.21348701       2.84130069       2.27059063
Si       5.09233901       1.86007696       5.82415022
Si       3.61711240       2.53177074       7.05832548
Si       2.68871362       2.16960692       1.03641537
Si       4.08241548       2.01648815      -0.40828166
Si       2.22341055       2.68488951       8.50302251
Si       1.54619662       3.01980645       4.27362555
Si       4.75962940       1.68157121       3.82111530
Si       6.60614194       2.08756368       4.50853413
Si      -0.30031591       2.61381397       3.58620672
Si       1.15457661       1.22726500       3.45702759
Si       5.15124942       3.47411265       4.63771326
Si       3.11497665       3.73506068      -0.78089981
Si       3.19084937       0.96631698       8.87564066
16
Lattice="6.701215196379781 -1.4568348231115968 -0.8560277334191155 -0.49802346559860594 5.4538593830968205 -0.43584518049851195 0.10217165927200218 0.7005369076524541 9.394421195966423" Properties=species:S:1:pos:R:3 unique_starting_index=30 config_type=initial n_minim_iter=16 stress="0.008542965168913667 0.0010984423649296146 -0.0007051230879224611 0.0010984423649296146 0.0074782821351856345 -0.0008212372047722625 -0.0007051230879224611 -0.0008212372047722625 0.007081542648126827" pbc="T T T"
Si       3.38706092       2.57206416       5.01328166
Si       2.91830247       2.12549730       3.08926662
Si       1.21573231       2.84637249       2.27333224
Si       5.08963108       1.85118897       5.82921604
Si       3.62102709       2.52750167       7.06216623
Si       2.68433630       2.17005979       1.04038205
Si       4.07847597       2.01146965      -0.40632886
Si       2.22688742       2.68609182       8.50887714
Si       1.54756492       3.01691177       4.27711536
Si       4.75779847       1.68064969       3.82543292
Si       6.60612363       2.08246814       4.51658799
Si      -0.30076024       2.61509333       3.58596029
Si       1.15537675       1.22797988       3.45235890
Si       5.14998664       3.46958159       4.65018938
Si       3.11366223       3.73201357      -0.77843784
Si       3.19170116       0.96554790       8.88098613
16
Lattice="6.697469069894599 -1.4600361989383264 -0.8532040499280013 -0.5006580652447168 5.453055722348188 -0.43527625694109673 0.10618896786694493 0.7018311335375726 9.39523922602905" Properties=species:S:1:pos:R:3 unique_starting_index=30 config_type=initial n_minim_iter=17 stress="0.0020756373748369323 0.00020920217501100538 4.6164277832549055e-05 0.00020920217501100538 0.0024254596164933143 -0.0001539054475690583 4.6164277832549055e-05 -0.0001539054475690583 0.002906488103178531" pbc="T T T"
Si       3.38455727       2.57063516       5.01709365
Si       2.91844270       2.12421550       3.08966527
Si       1.21500579       2.84906392       2.27524061
Si       5.08799418       1.84578674       5.83151831
Si       3.62094276       2.52617184       7.06557703
Si       2.68205721       2.16867882       1.04118189
Si       4.07531768       2.00925165      -0.40567742
Si       2.22768230       2.68559901       8.51243634
Si       1.54649247       3.01391500       4.27836685
Si       4.75650750       1.68093566       3.82839207
Si       6.60307535       2.07818755       4.52309557
Si      -0.30007538       2.61666311       3.58366335
Si       1.15505307       1.22788289       3.45012854
Si       5.14794690       3.46696777       4.65663038
Si       3.11201931       3.72978774      -0.77583374
Si       3.19098067       0.96506292       8.88259266
16
Lattice="6.697731281232845 -1.4588359215161408 -0.8529408333023187 -0.5001296495958216 5.449377516399366 -0.4322999108010695 0.10710965555537233 0.706261909005685 9.391167632147193" Properties=species:S:1:pos:R:3 unique_starting_index=30 config_type=initial n_minim_iter=18 stress="-0.0036489725425964143 0.00018468637494793095 0.000426145424293197 0.00018468637494793095 -0.0027884786177014703 0.00020846261090932256 0.000426145424293197 0.00020846261090932256 -0.0029136982877562335" pbc="T T T"
Si       3.38569015       2.57078950       5.01648408
Si       2.91902113       2.12601401       3.08944281
Si       1.21896526       2.85451187       2.27579425
Si       5.08574602       1.84229163       5.83013264
Si       3.62056177       2.52787620       7.06433306
Si       2.68414952       2.16892731       1.04159383
Si       4.07606387       2.00578463      -0.40314584
Si       2.22864742       2.69101887       8.50907273
Si       1.54823136       3.01087184       4.27957097
Si       4.75647993       1.68593166       3.82635592
Si       6.60348215       2.07716462       4.52516871
Si      -0.29877086       2.61963889       3.58075818
Si       1.15513066       1.22897001       3.44394567
Si       5.14958063       3.46783350       4.66198122
Si       3.11484480       3.72794227      -0.77345385
Si       3.18986649       0.96886124       8.87938074
16
Lattice="6.702380353885737 -1.4577499181254943 -0.8470689015721855 -0.49989595057729924 5.445563898861952 -0.4250902685153863 0.11801164027813624 0.7190373352750663 9.389020978437246" Properties=species:S:1:pos:R:3 unique_starting_index=30 config_type=initial n_minim_iter=19 stress="-0.00407257140020566 0.0007776875867655514 0.0005325644467490008 0.0007776875867655514 -0.0027858391199598017 0.00025970725886790153 0.0005325644467490008 0.00025970725886790153 -0.004078333356318109" pbc="T T T"
Si       3.39449186       2.57411198       5.02072661
Si       2.92600419       2.13273933       3.09613520
Si       1.22976928       2.87309849       2.28014523
Si       5.09072676       1.83375283       5.83671658
Si       3.63190607       2.53306311       7.07001310
Si       2.68858998       2.17378821       1.04684870
Si       4.07919928       2.00008258      -0.39741144
Si       2.24129677       2.70676874       8.51427325
Si       1.55335021       3.00857814       4.29012845
Si       4.76714584       1.69827317       3.82673336
Si       6.61091630       2.07746674       4.53636487
Si      -0.29042026       2.62938457       3.58049694
Si       1.15888144       1.23639670       3.43209261
Si       5.16161461       3.47045461       4.68476920
Si       3.12531708       3.72641740      -0.76683563
Si       3.19517896       0.98043392       8.88369744
16
Lattice="6.708830167017398 -1.4620449488552434 -0.8356414326860351 -0.5028218686852414 5.446701831550959 -0.41265902090128925 0.13844926094774568 0.7421829507534198 9.386585941056213" Properties=species:S:1:pos:R:3 unique_starting_index=30 config_type=initial n_minim_iter=20 stress="0.002207478127814085 0.00017033133911623487 -0.0004912819372788967 0.00017033133911623487 0.004574909720677686 -0.0006730337356710555 -0.0004912819372788967 -0.0006730337356710555 -0.0002008403120786929" pbc="T T T"
Si       3.40823296       2.58189488       5.03396405
Si       2.93622460       2.14494496       3.10432144
Si       1.24860356       2.90881924       2.29037493
Si       5.09585400       1.81802060       5.84791056
Si       3.65021532       2.54458496       7.07781761
Si       2.69424224       2.18225487       1.06046788
Si       4.07957046       1.99041692      -0.38774063
Si       2.26488710       2.73642291       8.52602612
Si       1.56190654       3.00450193       4.30745400
Si       4.78255102       1.72233790       3.83083148
Si       6.62394212       2.07709599       4.55953547
Si      -0.27948456       2.64974385       3.57875002
Si       1.16197316       1.25101526       3.41201902
Si       5.18248440       3.47582457       4.72626647
Si       3.13890656       3.72609317      -0.75321519
Si       3.20555100       1.00074666       8.89150068
16
Lattice="6.713873966053831 -1.472481300950077 -0.8214539467411123 -0.5105545693847451 5.446752709843548 -0.3961285427244461 0.16414025740533722 0.7728933035790059 9.3866106886312" Properties=species:S:1:pos:R:3 unique_starting_index=30 config_type=initial n_minim_iter=21 stress="0.010837368331390535 0.0009843780353984823 -0.0007613556236548359 0.0009843780353984823 0.012312534606850514 -0.0003407425776258757 -0.0007613556236548359 -0.0003407425776258757 0.005082417127794188" pbc="T T T"
Si       3.42158608       2.59415177       5.04998712
Si       2.94587357       2.15301294       3.11904108
Si       1.26880132       2.94912238       2.30670139
Si       5.09865833       1.79804233       5.86232681
Si       3.66653023       2.56450455       7.09014254
Si       2.70092942       2.18266017       1.07888566
Si       4.07866066       1.97973952      -0.37433845
Si       2.28879900       2.76742519       8.54336665
Si       1.56811087       2.99400938       4.32858577
Si       4.79934878       1.75315533       3.84044243
Si       6.63790242       2.06724950       4.58787197
Si      -0.27044277       2.67991522       3.58115623
Si       1.16020310       1.26570531       3.38747397
Si       5.20725655       3.48145940       4.78155423
Si       3.14674720       3.72173080      -0.72907789
Si       3.22071245       1.02543391       8.89810609
