8
Lattice="5.345641815621348 -1.662924835563363e-17 1.1393270227538992e-16 1.42137261548505e-17 4.358253841595208 -0.030781358559387635 -2.0170672063591885e-16 -0.026829771263055288 9.460020695272975" Properties=species:S:1:pos:R:3 unique_starting_index=34 config_type=initial n_minim_iter=1 energy=-1302.8122282817938 free_energy=-1302.8122282817938 pbc="T T T"
Si       0.93215234       2.09187718       5.70268063
Si       0.93215234       2.23954689       3.72655871
Si       0.51128681       3.31974552       9.39875771
Si       0.51128681       1.01167855       0.03048163
Si       4.41348947       0.04700508       8.47195974
Si       4.41348947       4.28441899       0.95727960
Si       4.83435501       3.17739058       4.74510130
Si       4.83435501       1.15403349       4.68413804
8
Lattice="5.320622893342109 -1.8042404961105763e-17 1.1354259284473608e-16 1.1799402639415292e-17 4.282168560011872 0.014837365032755075 -2.033533996487702e-16 0.07341855427891177 9.567625755179886" Properties=species:S:1:pos:R:3 unique_starting_index=34 config_type=initial n_minim_iter=2 stress="0.01711452096717031 -2.398900681467996e-15 -1.2920193850772693e-15 -2.398900681467996e-15 -0.032436482770544804 -0.024553579369909113 -1.2920193850772693e-15 -0.024553579369909113 0.0008508372438212562" pbc="T T T"
Si       0.92682490       2.11845281       5.79210561
Si       0.92682490       2.23713431       3.79035751
Si       0.50812441       3.36320804       9.53826301
Si       0.50812441       0.99237907       0.04420011
Si       4.39379799       0.13275930       8.56675170
Si       4.39379799       4.22282781       1.01571142
Si       4.81249848       3.17017263       4.83543167
Si       4.81249848       1.18541449       4.74703145
8
Lattice="5.297066452569828 -1.3839299151218535e-17 1.1968978113572568e-16 1.4694007144909518e-17 4.290577071435777 0.046695848224652406 -1.9143336876076903e-16 0.14270074166625477 9.593389642640876" Properties=species:S:1:pos:R:3 unique_starting_index=34 config_type=initial n_minim_iter=3 stress="0.007418360952457797 -2.815813715250387e-15 3.678996978917162e-15 -2.815813715250387e-15 -0.03482963032164048 0.002960651332804805 3.678996978917162e-15 0.002960651332804805 0.015890593916205897" pbc="T T T"
Si       0.92155745       2.16618711       5.82314873
Si       0.92155745       2.26709070       3.81693676
Si       0.50487425       3.43610531       9.58645986
Si       0.50487425       0.99717250       0.05362563
Si       4.37550900       0.19315254       8.59028365
Si       4.37550900       4.24012528       1.04980184
Si       4.79219220       3.21381141       4.87366837
Si       4.79219220       1.21946640       4.76641712
8
Lattice="5.280303994586223 -1.2114043949377977e-17 1.2226199624924646e-16 1.6038364721341833e-17 4.281878787752814 0.04544422566298137 -1.8621284930476254e-16 0.14001471526115347 9.590160983191666" Properties=species:S:1:pos:R:3 unique_starting_index=34 config_type=initial n_minim_iter=4 stress="-0.03278151213331202 -5.382727229768043e-15 4.2190024453330686e-15 -5.382727229768043e-15 -0.047673794067588704 0.005361192977585214 4.2190024453330686e-15 0.005361192977585214 -0.013048894760955405" pbc="T T T"
Si       0.91733251       2.16048126       5.81981508
Si       0.91733251       2.26141224       3.81579013
Si       0.50221476       3.42342739       9.58202245
Si       0.50221476       0.99846612       0.05358276
Si       4.36297149       0.19048021       8.58814851
Si       4.36297149       4.23141330       1.04745670
Si       4.77808923       3.20941287       4.87138536
Si       4.77808923       1.21248063       4.76421985
8
Lattice="5.266205958299007 -9.436925566156899e-18 1.268999847801672e-16 1.8262922277218825e-17 4.25843411229103 0.03822239944506275 -1.7923949805700058e-16 0.1250049738636826 9.664015653638819" Properties=species:S:1:pos:R:3 unique_starting_index=34 config_type=initial n_minim_iter=5 stress="-0.024567568639514543 -5.4727780004303585e-15 3.1761658038211902e-15 -5.4727780004303585e-15 0.035318261745046826 0.005622459489699734 3.1761658038211902e-15 0.005622459489699734 0.025259817809306206" pbc="T T T"
Si       0.91058553       2.14061648       5.85946376
Si       0.91058553       2.24282261       3.84277430
Si       0.49774602       3.37374114       9.64873275
Si       0.49774602       1.00969794       0.05350530
Si       4.35562043       0.17610804       8.65567092
Si       4.35562043       4.20733104       1.04656713
Si       4.76845994       3.20141749       4.90462433
Si       4.76845994       1.18202160       4.79761373
8
Lattice="5.367991808148769 -1.0948210578979787e-17 1.3160384634190686e-16 1.6872338219409953e-17 4.141080823904655 0.05521863820090144 -1.7274855893679986e-16 0.16225215608823376 9.612014789721552" Properties=species:S:1:pos:R:3 unique_starting_index=34 config_type=initial n_minim_iter=6 stress="0.014377061067810618 -8.642915396242525e-16 -1.0247220836036642e-15 -8.642915396242525e-16 0.05948159252854126 0.029569582039072267 -1.0247220836036642e-15 0.029569582039072267 -0.052235309426361586" pbc="T T T"
Si       0.92031404       2.10934568       5.82442134
Si       0.92031404       2.19398730       3.84281209
Si       0.50241672       3.28363062       9.60555390
Si       0.50241672       1.01970236       0.06167953
Si       4.44767777       0.20457297       8.62121016
Si       4.44767777       4.09876001       1.04602327
Si       4.86557509       3.17136885       4.89529624
Si       4.86557509       1.13196413       4.77193718
8
Lattice="5.379498446415925 -1.2629827774671087e-17 1.3454263207223017e-16 1.559124753692315e-17 4.114357253089662 0.05246208504297878 -1.683561269476803e-16 0.15656228550283685 9.630277865770905" Properties=species:S:1:pos:R:3 unique_starting_index=34 config_type=initial n_minim_iter=7 stress="0.014763647664017486 -2.1042218031659427e-15 4.785489576802714e-16 -2.1042218031659427e-15 0.0359536244765526 0.0285735115655101 4.785489576802714e-16 0.0285735115655101 -0.05445177213982953" pbc="T T T"
Si       0.92021934       2.09317566       5.83179064
Si       0.92021934       2.17774388       3.85094931
Si       0.50208313       3.25034543       9.62134242
Si       0.50208313       1.02057410       0.06139753
Si       4.45927911       0.19884639       8.63985721
Si       4.45927911       4.07207315       1.04288275
Si       4.87741531       3.15603387       4.90276750
Si       4.87741531       1.11488566       4.77997245
8
Lattice="5.39667599985668 -1.1605505756925939e-17 1.359273853899557e-16 1.7435335746472618e-17 4.095226662214147 0.014022552801800148 -1.7190245626431254e-16 0.0747140718540417 9.83852759476784" Properties=species:S:1:pos:R:3 unique_starting_index=34 config_type=initial n_minim_iter=8 stress="0.0002837916849106814 -1.7427031408467683e-15 -2.215078834716052e-15 -1.7427031408467683e-15 0.009812430438913614 -0.0033747441515688033 -2.215078834716052e-15 -0.0033747441515688033 -0.028058684248999616" pbc="T T T"
Si       0.91405688       2.03381218       5.92658627
Si       0.91405688       2.13612855       3.92596388
Si       0.49794265       3.15442162       9.80321539
Si       0.49794265       1.01551911       0.04933476
Si       4.48261912       0.12587226       8.83821640
Si       4.48261912       4.04406848       1.01433375
Si       4.89873335       3.10048948       4.97560984
Si       4.89873335       1.06945126       4.87694031
8
Lattice="5.370001415223588 -1.0861018028517315e-17 1.4253745084188773e-16 1.8036055375852856e-17 4.0881384317339995 0.008481170406159297 -1.6235147429814273e-16 0.06349401090438331 9.946760075719434" Properties=species:S:1:pos:R:3 unique_starting_index=34 config_type=initial n_minim_iter=9 stress="-0.005239040957223814 -1.3371806813717355e-15 2.225795714020956e-15 -1.3371806813717355e-15 0.0020020237373061956 -0.005235505437960927 2.225795714020956e-15 -0.005235505437960927 0.013079635329351604" pbc="T T T"
Si       0.90998859       2.02536302       5.98366847
Si       0.90998859       2.12626942       3.97157278
Si       0.49978776       3.13887301       9.90733471
Si       0.49978776       1.01275943       0.04790653
Si       4.46001283       0.11394721       8.94071223
Si       4.46001283       4.03768523       1.01452901
Si       4.87021365       3.08857565       5.02552716
Si       4.87021365       1.06305679       4.92971409
8
Lattice="5.366558183656865 -1.0264117108901219e-17 1.5192551475877684e-16 1.8382678532945477e-17 4.086333171380191 0.01095843450313923 -1.4612641100878746e-16 0.06900378682363902 9.963965220124711" Properties=species:S:1:pos:R:3 unique_starting_index=34 config_type=initial n_minim_iter=10 stress="1.593721232461021e-05 -1.2880550980409292e-15 -3.513570415366085e-16 -1.2880550980409292e-15 0.002821321842962209 0.00047641813296166337 -3.513570415366085e-16 0.00047641813296166337 0.008421410345240838" pbc="T T T"
Si       0.90951918       2.02966449       5.99168491
Si       0.90951918       2.12567247       3.98323874
Si       0.50285888       3.14254948       9.92671554
Si       0.50285888       1.01278748       0.04820811
Si       4.45703900       0.11700778       8.95974213
Si       4.45703900       4.03832918       1.01518152
Si       4.86369930       3.09045596       5.03566994
Si       4.86369930       1.06488100       4.93925372
8
Lattice="5.357306799116534 -9.60308335447038e-18 1.6089442735883228e-16 1.9012218719930127e-17 4.087790364415096 0.00497724549326585 -1.303571375471351e-16 0.05608085102864934 9.973705966226607" Properties=species:S:1:pos:R:3 unique_starting_index=34 config_type=initial n_minim_iter=11 stress="0.001195282165469675 -1.7333085840596415e-15 3.88723677319534e-16 -1.7333085840596415e-15 0.0045775393115763995 0.0013828002947936396 3.88723677319534e-16 0.0013828002947936396 -0.003387638504422598" pbc="T T T"
Si       0.90741138       2.02697173       5.99141798
Si       0.90741138       2.11689949       3.98726524
Si       0.50818638       3.13211206       9.93305284
Si       0.50818638       1.01175915       0.04563037
Si       4.44989542       0.10104473       8.97162960
Si       4.44989542       4.04282649       1.00705362
Si       4.84912042       3.08369476       5.03497198
Si       4.84912042       1.06017646       4.94371124
8
Lattice="5.355712934152882 -9.250155393996412e-18 1.753689045488626e-16 1.9981168722111846e-17 4.077410935353074 -0.020037005362249293 -1.0629780812186128e-16 0.002184841758145413 10.021279032559494" Properties=species:S:1:pos:R:3 unique_starting_index=34 config_type=initial n_minim_iter=12 stress="0.0008168430087609467 -8.457079933157304e-16 -9.625826057693065e-16 -8.457079933157304e-16 -0.011160774559156539 -8.811936555711964e-05 -9.625826057693065e-16 -8.811936555711964e-05 -0.007196647056758766" pbc="T T T"
Si       0.89656266       2.00571605       6.00242148
Si       0.89656266       2.07387973       3.99882055
Si       0.52258965       3.07108645       9.96680723
Si       0.52258965       1.00850933       0.03443480
Si       4.45915028       0.03626668       9.01947857
Si       4.45915028       4.04332909       0.98176346
Si       4.83312328       3.04830721       5.03505581
Si       4.83312328       1.03128856       4.96618621
8
Lattice="5.38082638124675 -1.0293093862272449e-17 1.8736750562996512e-16 2.033580205940489e-17 4.08554633206868 -0.054613233009289046 -8.46536037134416e-17 -0.07310677628553801 9.99431844085369" Properties=species:S:1:pos:R:3 unique_starting_index=34 config_type=initial n_minim_iter=13 stress="0.00815237973206462 -1.89762475251443e-15 -3.446393556434954e-16 -1.89762475251443e-15 -0.004891233575341976 -0.0009261745881530116 -3.446393556434954e-16 -0.0009261745881530116 0.015105274772463805" pbc="T T T"
Si       0.86908240       1.99730144       5.97550205
Si       0.86908240       2.01513811       3.96420316
Si       0.54982994       3.00566084       9.92950097
Si       0.54982994       1.00677872       0.01020424
Si       4.51174398      -0.06418844       8.98866900
Si       4.51174398       4.07662800       0.95103621
Si       4.83099644       3.01299849       4.98005684
Si       4.83099644       0.99944106       4.95964836
8
Lattice="5.379508043330632 -1.1397196077852313e-17 1.942762320767899e-16 1.959760668454485e-17 4.080390439189748 -0.06079552477340013 -6.969318855643854e-17 -0.0870473166426443 9.9160198513215" Properties=species:S:1:pos:R:3 unique_starting_index=34 config_type=initial n_minim_iter=14 stress="0.0020356594475519916 -2.348662867302372e-15 2.3814828993265542e-15 -2.348662867302372e-15 -0.006758824977790899 -0.0007572618477902283 2.3814828993265542e-15 -0.0007572618477902283 0.00513888956828518" pbc="T T T"
Si       0.84558034       2.00527144       5.93252185
Si       0.84558034       1.98807168       3.92270248
Si       0.56913352       2.98111177       9.86275179
Si       0.56913352       1.01223135      -0.00752746
Si       4.53392770      -0.09564719       8.91111017
Si       4.53392770       4.08899032       0.94411416
Si       4.81037453       3.00890292       4.92008470
Si       4.81037453       0.98444021       4.93513962
8
Lattice="5.372419829547023 -1.2337147612542665e-17 1.99217234244892e-16 1.896418591931522e-17 4.095754317226543 -0.06515286682960643 -6.009579279462765e-17 -0.09675580061030586 9.893951878422817" Properties=species:S:1:pos:R:3 unique_starting_index=34 config_type=initial n_minim_iter=15 stress="0.004501264172670468 -2.7613560727713696e-15 6.953469725592118e-15 -2.7613560727713696e-15 0.01594433884321693 5.123619293837467e-05 6.953469725592118e-15 5.123619293837467e-05 -8.536330684956846e-05" pbc="T T T"
Si       0.81216525       2.03376227       5.91721290
Si       0.81216525       1.96523625       3.91158611
Si       0.60323709       2.98584809       9.86141804
Si       0.60323709       1.01315043      -0.03261903
Si       4.56025458      -0.13101881       8.89113848
Si       4.56025458       4.13001733       0.93766053
Si       4.76918274       3.01264968       4.88178048
Si       4.76918274       0.98634883       4.94701853
8
Lattice="5.361370433148077 -1.1843534559781005e-17 2.0279493200323468e-16 1.7771938808597934e-17 4.093078147994299 -0.023479398047521003 -5.222582525452435e-17 -0.006522575881441702 9.860022907598443" Properties=species:S:1:pos:R:3 unique_starting_index=34 config_type=initial n_minim_iter=16 stress="-0.005825493870802363 -2.263828932828257e-15 6.044915833556141e-15 -2.263828932828257e-15 0.011632201258986091 0.0008246795832534559 6.044915833556141e-15 0.0008246795832534559 0.009468304427918055" pbc="T T T"
Si       0.76546606       2.10324491       5.92111150
Si       0.76546606       1.98331066       3.91543201
Si       0.64741004       3.07485243       9.89707702
Si       0.64741004       1.01170314      -0.06053351
Si       4.59590438      -0.06648970       8.85718317
Si       4.59590438       4.15304527       0.97936034
Si       4.71396040       3.05498093       4.85773825
Si       4.71396040       1.03157464       4.97880526
8
Lattice="5.37841946356385 -1.198546174530615e-17 2.0452315854030982e-16 1.69094384946384e-17 4.083569482543338 -0.002603751540256265 -4.5800791199421054e-17 0.03819990295829961 9.768173547195275" Properties=species:S:1:pos:R:3 unique_starting_index=34 config_type=initial n_minim_iter=17 stress="-0.008985181854376528 -3.1121791172372657e-15 7.86188763156593e-15 -3.1121791172372657e-15 -0.001377549508794631 0.0008204202236432503 7.86188763156593e-15 0.0008204202236432503 -0.0053573444893871836" pbc="T T T"
Si       0.74904962       2.12530720       5.88408435
Si       0.74904962       1.99646219       3.88148545
Si       0.66515823       3.11172664       9.83135673
Si       0.66515823       1.01004274      -0.06578693
Si       4.62936984      -0.02622260       8.76687410
Si       4.62936984       4.14799199       0.99869570
Si       4.71326124       3.07092744       4.81699797
Si       4.71326124       1.05084195       4.94857183
8
Lattice="5.386738507719556 -1.2580847496037283e-17 2.0536161843864373e-16 1.6477388799277013e-17 4.080196311280246 -0.0036071132353184764 -4.327986093451699e-17 0.03583434281062571 9.738662484106657" Properties=species:S:1:pos:R:3 unique_starting_index=34 config_type=initial n_minim_iter=18 stress="-0.003526154442645445 -2.8823249862511024e-15 8.482941257673245e-15 -2.8823249862511024e-15 -0.0012662399786990673 0.0014569928509686478 8.482941257673245e-15 0.0014569928509686478 -0.006042211814401053" pbc="T T T"
Si       0.73494767       2.13062510       5.86845511
Si       0.73494767       1.98540555       3.86660026
Si       0.68017961       3.10666425       9.80907902
Si       0.68017961       1.00936640      -0.07402365
Si       4.65179084      -0.03677543       8.73773506
Si       4.65179084       4.15280609       0.99732031
Si       4.70655890       3.06738173       4.79350404
Si       4.70655890       1.04864893       4.94155134
8
Lattice="5.391986955579843 -1.3489265544021426e-17 2.0693377716134367e-16 1.6200486555552923e-17 4.076197831334005 -0.015971594065751098 -4.118370710745363e-17 0.009130590220814938 9.754231450283264" Properties=species:S:1:pos:R:3 unique_starting_index=34 config_type=initial n_minim_iter=19 stress="0.0031623987193264837 -1.802149177698656e-15 7.501510684540545e-15 -1.802149177698656e-15 -0.003325144576688167 -0.0010365538657807565 7.501510684540545e-15 -0.0010365538657807565 -0.0010046572474401835" pbc="T T T"
Si       0.73164890       2.11671529       5.86985352
Si       0.73164890       1.96861313       3.86840634
Si       0.68516769       3.07687311       9.81405941
Si       0.68516769       1.00845532      -0.07579956
Si       4.66033805      -0.06492049       8.75350786
Si       4.66033805       4.15024891       0.98475199
Si       4.70681927       3.05111953       4.79333037
Si       4.70681927       1.03420889       4.94492949
8
Lattice="5.380910048931985 -1.404259006515754e-17 2.081622470189484e-16 1.584605591760621e-17 4.078413277509769 -0.019476220329582173 -3.893892998269748e-17 0.001507616037340454 9.753920235289282" Properties=species:S:1:pos:R:3 unique_starting_index=34 config_type=initial n_minim_iter=20 stress="-0.0004831050600686578 -4.638905611139395e-15 1.1962531165219341e-14 -4.638905611139395e-15 -0.006991537226620861 0.0004553756056480954 1.1962531165219341e-14 0.0004553756056480954 -0.0028885645070003507" pbc="T T T"
Si       0.72213154       2.11330948       5.86778288
Si       0.72213154       1.96661142       3.86666113
Si       0.69659928       3.07410026       9.80859707
Si       0.69659928       1.00582064      -0.07415305
Si       4.65877851      -0.07184142       8.75335936
Si       4.65877851       4.15176231       0.98108466
Si       4.68431077       3.04578108       4.79306896
Si       4.68431077       1.03413981       4.94137506
8
Lattice="5.381407891820236 -1.4807052931796425e-17 2.0917525909545678e-16 1.560693392992104e-17 4.090006615702528 -0.02881367628360688 -3.678481152436719e-17 -0.018908644486761952 9.743015171389011" Properties=species:S:1:pos:R:3 unique_starting_index=34 config_type=initial n_minim_iter=21 stress="-0.012564958294744528 -4.046573357019103e-15 1.607285405254569e-14 -4.046573357019103e-15 -0.0019453385430107145 0.0015926604478138581 1.607285405254569e-14 0.0015926604478138581 -0.007406359004041193" pbc="T T T"
Si       0.71069110       2.09182472       5.85944443
Si       0.71069110       1.97927326       3.85475707
Si       0.70284300       3.06167077       9.76944858
Si       0.70284300       1.00942720      -0.05524709
Si       4.67071680      -0.07518437       8.74067149
Si       4.67071680       4.14628235       0.97353001
Si       4.67856490       3.04497618       4.80185366
Si       4.67856490       1.02612179       4.91234783
