22
Lattice="8.667584937344738 0.42599520954220393 -0.020997433621503598 -3.2627974495633976 8.041309182450386 0.02099743362152077 -2.7200922060845416 -4.2223550437280055 7.076846595197595" Properties=species:S:1:pos:R:3 unique_starting_index=6 config_type=initial n_minim_iter=1 energy=-3597.9807719053856 free_energy=-3597.9807719053856 pbc="T T T"
Si      -2.45958954       4.77531252       6.02107868
Si       2.13861855       1.38819164       4.62156164
Si       6.09742523       3.20765470      -0.16579989
Si      -0.39545963      -0.88866715       3.66308620
Si       6.30626195      -1.27206786       2.43428752
Si      -0.61590040       3.59846242       1.07676534
Si       2.04512225       3.51210287       3.41376040
Si      -2.37769729       2.65880829       7.24264648
Si      -0.00985529       5.48741793       1.62886990
Si       1.54595017       5.44932189       2.96078131
Si       1.35388062       3.97945197       1.53745691
Si       1.91211578       5.85306983       0.99991322
Si       1.57186027      -0.52584116       4.11606529
Si       2.26143541      -1.92099995       5.44797670
Si       1.78391919      -0.02372497       6.07693337
Si       0.31947497      -1.31889812       5.53938968
Si      -1.46957961       1.79024955       1.20944173
Si       3.31765908       2.98872226       4.87487990
Si      -1.40595274       0.04523913       2.20196669
Si      -3.74032110       3.23969257       5.88840230
Si       2.70239374       4.23365220      -0.00000000
Si       2.97374637      -1.89817991       3.52792458
22
Lattice="8.673318940056436 0.42961317881801675 -0.021713363802919806 -3.2619298706768896 8.04803345160429 0.021713363802936623 -2.7239964660362808 -4.227140960950067 7.079733253365092" Properties=species:S:1:pos:R:3 unique_starting_index=6 config_type=initial n_minim_iter=2 stress="0.005229102089789233 0.003531567641950498 0.001975913043799519 0.003531567641950498 0.008507519029525295 -0.0012612502871842185 0.001975913043799519 -0.0012612502871842185 0.0029748573075796436" pbc="T T T"
Si      -2.45992347       4.77967148       6.02402818
Si       2.13998613       1.39045093       4.62347250
Si       6.10268456       3.21293120      -0.16618670
Si      -0.39635181      -0.88945320       3.66437867
Si       6.30956522      -1.27104414       2.43454739
Si      -0.61484268       3.60193308       1.07741843
Si       2.04748221       3.51651900       3.41535458
Si      -2.37902975       2.66101436       7.24591995
Si      -0.00775962       5.49291724       1.62967735
Si       1.54877038       5.45524083       2.96197370
Si       1.35598492       3.98394101       1.53815685
Si       1.91548230       5.85964481       1.00055477
Si       1.57213745      -0.52557702       4.11775955
Si       2.26163700      -1.92156968       5.45005590
Si       1.78456143      -0.02268910       6.07917848
Si       0.31875656      -1.31988537       5.54157640
Si      -1.47010289       1.79150920       1.21015580
Si       3.32053851       2.99323671       4.87664774
Si      -1.40697445       0.04496566       2.20308551
Si      -3.74199491       3.24168661       5.89129081
Si       2.70569453       4.23882332      -0.00000000
Si       2.97466124      -1.89876389       3.52900994
22
Lattice="8.67440683613913 0.42830637599818755 -0.031197691854694967 -3.2635732323446813 8.048470045151522 0.03119769185471173 -2.731713230286792 -4.221602867736869 7.081353377790644" Properties=species:S:1:pos:R:3 unique_starting_index=6 config_type=initial n_minim_iter=3 stress="-0.0017382008147612345 0.007472764484187465 -0.01072826227629543 0.007472764484187465 0.005198899123697924 0.006847985501901453 -0.01072826227629543 0.006847985501901453 -0.006508158244740912" pbc="T T T"
Si      -2.46822196       4.78566876       6.03175049
Si       2.13424719       1.39280154       4.62420990
Si       6.10422377       3.21087306      -0.17063236
Si      -0.40038890      -0.88641302       3.66359400
Si       6.30748467      -1.27102872       2.42594578
Si      -0.61526916       3.60290555       1.08080058
Si       2.04366726       3.51880499       3.41775937
Si      -2.38926139       2.66708209       7.25198573
Si      -0.00870342       5.49403672       1.63285797
Si       1.54529942       5.45571457       2.96337157
Si       1.35305505       3.98487934       1.53960346
Si       1.91413008       5.86021502       1.00352927
Si       1.56631172      -0.52298782       4.11798180
Si       2.25533302      -1.91641635       5.44849540
Si       1.77793118      -0.01813747       6.07782410
Si       0.31312443      -1.31660977       5.54174991
Si      -1.47268309       1.79295924       1.21335628
Si       3.31505333       2.99632251       4.87531279
Si      -1.40958287       0.04682758       2.20604059
Si      -3.74895347       3.24593141       5.89919479
Si       2.70541680       4.23838821      -0.00000000
Si       2.97134680      -1.89664824       3.52507784
22
Lattice="8.681190495354583 0.4164259111576096 -0.02870438477885025 -3.277205476030798 8.049621309353133 0.028704384778867238 -2.7261872871603865 -4.217579777762815 7.093463652642126" Properties=species:S:1:pos:R:3 unique_starting_index=6 config_type=initial n_minim_iter=4 stress="0.005495116031859329 -0.0030325144805349743 -0.006328051860717015 -0.0030325144805349743 0.0026799790018030185 0.00403927553982321 -0.006328051860717015 0.00403927553982321 0.0074308099464651" pbc="T T T"
Si      -2.47583617       4.78799918       6.04065474
Si       2.13467265       1.38750942       4.63437522
Si       6.10653710       3.19990198      -0.16970964
Si      -0.39818332      -0.88587679       3.66785141
Si       6.31481491      -1.28072825       2.43038404
Si      -0.61805593       3.60215456       1.08151329
Si       2.04190243       3.51432522       3.42561224
Si      -2.39466074       2.66858448       7.26317329
Si      -0.01281977       5.49153017       1.63274129
Si       1.54087762       5.44857039       2.96549268
Si       1.34810828       3.98123978       1.54138727
Si       1.90886058       5.85527502       1.00574074
Si       1.56721917      -0.52598335       4.12797097
Si       2.26031844      -1.91718231       5.46072236
Si       1.78119483      -0.02097392       6.08772291
Si       0.31743178      -1.31860598       5.55207638
Si      -1.47695298       1.79453566       1.21491481
Si       3.31556555       2.98959430       4.88297571
Si      -1.41037542       0.04848259       2.21048794
Si      -3.75383218       3.24789644       5.90725323
Si       2.70199251       4.23302361      -0.00000000
Si       2.97750160      -1.90057693       3.53237963
22
Lattice="8.674699284483557 0.42112585928839297 -0.013068124792134692 -3.270209466515496 8.045712194125112 0.013068124792151718 -2.71325962468996 -4.226388194357666 7.0854633215540685" Properties=species:S:1:pos:R:3 unique_starting_index=6 config_type=initial n_minim_iter=5 stress="-0.00032098858859543717 0.0017205490801269782 -0.0019101453110870622 0.0017205490801269782 0.001276227668267277 0.0012192699115615327 -0.0019101453110870622 0.0012192699115615327 -0.0014192363550840647" pbc="T T T"
Si      -2.46119146       4.78083882       6.02405151
Si       2.14118447       1.38172183       4.63381463
Si       6.10499168       3.20094095      -0.16217358
Si      -0.39112695      -0.88987694       3.66171274
Si       6.31326013      -1.28136683       2.43858056
Si      -0.61079275       3.59970592       1.07447994
Si       2.04873568       3.51102401       3.42375057
Si      -2.38014003       2.65881172       7.24763690
Si      -0.00325934       5.48851394       1.62255837
Si       1.54856605       5.44168951       2.95581116
Si       1.35107293       3.97904401       1.53684634
Si       1.91333060       5.85383820       1.00206037
Si       1.57066855      -0.53071493       4.12965215
Si       2.26648512      -1.91858879       5.46290494
Si       1.79093726      -0.02633272       6.08340295
Si       0.32711960      -1.32564975       5.54861698
Si      -1.47383757       1.79222934       1.20922485
Si       3.32434594       2.98486390       4.87884232
Si      -1.40543517       0.04564688       2.20662100
Si      -3.73731210       3.23703376       5.88930659
Si       2.70224491       4.23341903      -0.00000000
Si       2.98071983      -1.90263116       3.53619760
22
Lattice="8.674564259180208 0.4225335218602777 -0.00463550453744346 -3.2688757941874416 8.046182368422798 0.004635504537460496 -2.7067509530129694 -4.231864236023659 7.08459212078381" Properties=species:S:1:pos:R:3 unique_starting_index=6 config_type=initial n_minim_iter=6 stress="-0.0007922975196935505 0.000281916005457075 -0.0010612698542285417 0.000281916005457075 -0.0005305898868366812 0.0006774219708827457 -0.0010612698542285417 0.0006774219708827457 -0.0009722478089415031" pbc="T T T"
Si      -2.46058951       4.77908325       6.02019290
Si       2.14492387       1.38202774       4.64079528
Si       6.10832701       3.19917970      -0.16002549
Si      -0.38539706      -0.89258065       3.65708251
Si       6.31833690      -1.28191459       2.43916134
Si      -0.60479623       3.59450693       1.06903472
Si       2.05157822       3.51148481       3.42750961
Si      -2.37663314       2.65561948       7.24461761
Si       0.00571148       5.49288504       1.61639873
Si       1.55037737       5.43307898       2.95060136
Si       1.35542977       3.97283474       1.53616109
Si       1.91666165       5.85778314       0.99504705
Si       1.56860442      -0.53817318       4.13399076
Si       2.27318175      -1.91408752       5.46819339
Si       1.79962178      -0.02712643       6.08954507
Si       0.32616182      -1.32978812       5.54843102
Si      -1.47451896       1.79322765       1.20988150
Si       3.33235125       2.98051211       4.87685963
Si      -1.40624417       0.04559990       2.20773249
Si      -3.72827736       3.23183014       5.87934613
Si       2.70284423       4.23435795      -0.00000000
Si       2.98390665      -1.90466535       3.53997831
22
Lattice="8.67210450094778 0.4162768461483978 -0.004217998654943449 -3.2735153308818923 8.041317072873046 0.004217998654960461 -2.7028493828131195 -4.226527887126612 7.085885118506983" Properties=species:S:1:pos:R:3 unique_starting_index=6 config_type=initial n_minim_iter=7 stress="-0.001030529830197943 -0.0004386298831220178 -0.000750257278293276 -0.0004386298831220178 -0.001437717737919403 0.0004788987099780743 -0.000750257278293276 0.0004788987099780743 -0.0007505466422961223" pbc="T T T"
Si      -2.46489576       4.77945292       6.02243195
Si       2.14165575       1.37866611       4.64504150
Si       6.10722423       3.19166304      -0.16012179
Si      -0.38478537      -0.89257730       3.65526076
Si       6.31810547      -1.28721457       2.43662562
Si      -0.60338588       3.59122762       1.06767117
Si       2.04812600       3.50625544       3.43062435
Si      -2.37908529       2.65679091       7.24600691
Si       0.00351856       5.48774114       1.61624120
Si       1.54637859       5.42652158       2.94968217
Si       1.35513435       3.96507170       1.53682107
Si       1.91261232       5.85266595       0.99111920
Si       1.56824163      -0.53922471       4.13620295
Si       2.27334079      -1.91290593       5.46964392
Si       1.80058663      -0.02761747       6.09476591
Si       0.32314628      -1.32798810       5.54906404
Si      -1.47733128       1.79119726       1.21337964
Si       3.33383715       2.97556240       4.87687451
Si      -1.40745784       0.05020013       2.20901061
Si      -3.72967296       3.22889544       5.87672348
Si       2.69929458       4.22879696      -0.00000000
Si       2.98462756      -1.90512552       3.54083356
22
Lattice="8.67228264906465 0.41173153849321725 0.005341128553075657 -3.277713168722719 8.039565012402093 -0.005341128553058657 -2.692781991089777 -4.228522437136913 7.088480858393034" Properties=species:S:1:pos:R:3 unique_starting_index=6 config_type=initial n_minim_iter=8 stress="6.644664454437705e-05 -0.0006950330456373064 0.0016561862768324687 -0.0006950330456373064 -0.000578764870992764 -0.0010571646479286246 0.0016561862768324687 -0.0010571646479286246 0.0005100946183609534" pbc="T T T"
Si      -2.46396689       4.77819295       6.02074678
Si       2.14355688       1.37368806       4.65313974
Si       6.11076670       3.18687028      -0.15472613
Si      -0.38213763      -0.89616742       3.65229178
Si       6.32303525      -1.29412584       2.44068224
Si      -0.59905026       3.58779308       1.06239294
Si       2.04980253       3.49885366       3.43618908
Si      -2.37485662       2.65599173       7.24320699
Si       0.00402699       5.48186414       1.61349668
Si       1.54719049       5.42269261       2.94609151
Si       1.36019837       3.95785004       1.53726239
Si       1.91002985       5.84944041       0.98296508
Si       1.57449413      -0.54209488       4.14238934
Si       2.27786337      -1.91691363       5.47498418
Si       1.80881554      -0.03331245       6.10551577
Si       0.32453121      -1.32842975       5.55121846
Si      -1.48067431       1.79273897       1.21393376
Si       3.34062050       2.96739310       4.87582285
Si      -1.40765634       0.05091903       2.21265801
Si      -3.72099752       3.22276561       5.86920596
Si       2.69728474       4.22564828      -0.00000000
Si       2.98975033      -1.90839545       3.54691099
22
Lattice="8.67297495690065 0.4099906987811153 0.005973678910345636 -3.2795836755733205 8.039460049718892 -0.005973678910328743 -2.6916597042769266 -4.227939876140142 7.0900010649553895" Properties=species:S:1:pos:R:3 unique_starting_index=6 config_type=initial n_minim_iter=9 stress="0.0019018624092604268 -0.0009132932313106148 0.002864141214918425 -0.0009132932313106148 0.0010540360884771045 -0.0018282175631091748 0.002864141214918425 -0.0018282175631091748 0.0024848283211200716" pbc="T T T"
Si      -2.46956293       4.78374433       6.02544826
Si       2.13938854       1.37307048       4.66147618
Si       6.11370406       3.18668575      -0.15762426
Si      -0.38051731      -0.90019104       3.65123675
Si       6.32604460      -1.29932504       2.43449856
Si      -0.59240706       3.58553199       1.05857912
Si       2.04541480       3.49736612       3.43876431
Si      -2.37513839       2.65916094       7.24762532
Si       0.00668946       5.47699751       1.61334630
Si       1.54757542       5.42301618       2.94122881
Si       1.36655375       3.95574711       1.54320330
Si       1.90295786       5.84940290       0.97647656
Si       1.57574784      -0.54102694       4.14877225
Si       2.27345042      -1.91596499       5.47665476
Si       1.81288123      -0.03916035       6.11352450
Si       0.32107031      -1.32296789       5.54679776
Si      -1.48584521       1.79651250       1.21986381
Si       3.34534866       2.96260324       4.87095408
Si      -1.41286934       0.05377367       2.21904698
Si      -3.71614591       3.22014165       5.86416357
Si       2.69669564       4.22472538      -0.00000000
Si       2.99065763      -1.90897458       3.54798737
22
Lattice="8.672352635569178 0.41444077874489227 0.001353781427532126 -3.2752852099643532 8.040769129140516 -0.0013537814275152227 -2.69739196477111 -4.228333746151919 7.087082160312208" Properties=species:S:1:pos:R:3 unique_starting_index=6 config_type=initial n_minim_iter=10 stress="0.002062713328222226 0.00045231309312702685 0.0011791333343186235 0.00045231309312702685 0.002482603602712192 -0.0007526557209605055 0.0011791333343186235 -0.0007526557209605055 0.001773995868131748" pbc="T T T"
Si      -2.47694541       4.79149616       6.02928620
Si       2.13415267       1.37742595       4.66724992
Si       6.11673307       3.19046139      -0.16445708
Si      -0.37940316      -0.90255848       3.64779611
Si       6.32584505      -1.29818432       2.42118602
Si      -0.58370139       3.58301455       1.05644218
Si       2.04074222       3.50274527       3.43928605
Si      -2.37872120       2.66310415       7.25153923
Si       0.00502082       5.47763343       1.61401324
Si       1.55088405       5.42943913       2.94297748
Si       1.37033663       3.95944849       1.54389982
Si       1.90327311       5.85119132       0.97527941
Si       1.57444855      -0.53571554       4.14410467
Si       2.26899750      -1.91760467       5.47306891
Si       1.80863843      -0.03851533       6.11180274
Si       0.31710274      -1.31837215       5.54318233
Si      -1.49034560       1.80097796       1.22699755
Si       3.34858331       2.96299856       4.86183912
Si      -1.41960487       0.05648023       2.22524304
Si      -3.71163456       3.21885480       5.85873082
Si       2.69853371       4.22760496      -0.00000000
Si       2.98748033      -1.90694648       3.54421797
22
Lattice="8.674303829370382 0.4206676108739601 -0.00610809850265092 -3.270458628881264 8.045160565199694 0.006108098502667756 -2.707070594533179 -4.229628058170644 7.0853765431122175" Properties=species:S:1:pos:R:3 unique_starting_index=6 config_type=initial n_minim_iter=11 stress="0.0021643965695931707 0.001666230827011827 -0.0008521533988225522 0.001666230827011827 0.003711188227749804 0.000543940292494844 -0.0008521533988225522 0.000543940292494844 0.0011008205691837793" pbc="T T T"
Si      -2.48890263       4.80052320       6.03706376
Si       2.12891554       1.38684658       4.67472393
Si       6.12449157       3.19608692      -0.17268852
Si      -0.38016294      -0.90517907       3.64257750
Si       6.32886754      -1.29403591       2.40454451
Si      -0.57533124       3.57906638       1.05442087
Si       2.03578423       3.51027675       3.44279904
Si      -2.38656365       2.67121565       7.25806506
Si       0.00466571       5.48041245       1.61913334
Si       1.55218845       5.44099877       2.94477205
Si       1.37390629       3.96843072       1.54540487
Si       1.90367519       5.85461849       0.97710333
Si       1.57470595      -0.53095990       4.14060448
Si       2.26198910      -1.91805107       5.46624320
Si       1.80189915      -0.03800203       6.10827321
Si       0.31406859      -1.31264693       5.53997167
Si      -1.49653625       1.80606934       1.23875222
Si       3.35507373       2.96518815       4.85217590
Si      -1.43003000       0.06199492       2.23320064
Si      -3.70926209       3.21848023       5.85273242
Si       2.70192260       4.23291409      -0.00000000
Si       2.98361662      -1.90448022       3.53963422
22
Lattice="8.671324460066929 0.4243823727089911 -0.0017866931782996758 -3.2658347792579887 8.04402209622837 0.001786693178316495 -2.704250250974685 -4.233241311861313 7.080866476494792" Properties=species:S:1:pos:R:3 unique_starting_index=6 config_type=initial n_minim_iter=12 stress="0.0005682330937051191 0.0002826898330005417 -0.0002794116795087624 0.0002826898330005417 0.0008306590844150008 0.00017835200902630805 -0.0002794116795087624 0.00017835200902630805 0.00038778866700510156" pbc="T T T"
Si      -2.48584985       4.79891758       6.03159946
Si       2.13038656       1.38737759       4.67560820
Si       6.12569622       3.19674278      -0.17360346
Si      -0.37557309      -0.90772064       3.63740490
Si       6.32857085      -1.29237654       2.40347158
Si      -0.57062871       3.57640770       1.05105371
Si       2.03601131       3.51233299       3.44346157
Si      -2.38365558       2.66897121       7.25446993
Si       0.00492494       5.47811692       1.61554560
Si       1.55782313       5.44315812       2.94331845
Si       1.37562175       3.96898305       1.54603061
Si       1.90404511       5.85636102       0.97595452
Si       1.57711265      -0.52855307       4.13754803
Si       2.26261813      -1.92239565       5.46532087
Si       1.80614431      -0.04054611       6.10491196
Si       0.31666768      -1.31447162       5.53483586
Si      -1.49906462       1.80869020       1.24233610
Si       3.36210278       2.96150744       4.84412450
Si      -1.43350761       0.06320775       2.23674197
Si      -3.69837616       3.21253857       5.84031706
Si       2.70274484       4.23420224      -0.00000000
Si       2.98353710      -1.90442947       3.53953989
22
Lattice="8.670170889491533 0.42467255838316476 0.0015386101829641533 -3.2650858930707454 8.0430979196887 -0.0015386101829473402 -2.7012449556060307 -4.234713476891615 7.0797379796569375" Properties=species:S:1:pos:R:3 unique_starting_index=6 config_type=initial n_minim_iter=13 stress="-0.00029907135689567494 -0.0006592338761279929 0.0005786108906217301 -0.0006592338761279929 -0.0009110498678239153 -0.0003693346497475233 0.0005786108906217301 -0.0003693346497475233 0.00012172582098158929" pbc="T T T"
Si      -2.48293887       4.79621911       6.02871454
Si       2.13204586       1.38671264       4.67502789
Si       6.12647795       3.19358178      -0.17402747
Si      -0.37140779      -0.90816355       3.63391672
Si       6.32912084      -1.29233341       2.40624870
Si      -0.57054775       3.57551567       1.04948483
Si       2.03645651       3.51381851       3.44582126
Si      -2.38384659       2.66687728       7.25376544
Si       0.00490452       5.47637469       1.61339198
Si       1.56002983       5.44261252       2.94239827
Si       1.37707520       3.96881713       1.54615842
Si       1.90318719       5.85525450       0.97464011
Si       1.57869400      -0.52825335       4.13733971
Si       2.26405174      -1.92461985       5.46634599
Si       1.80850714      -0.04326232       6.10509786
Si       0.31891055      -1.31469529       5.53357956
Si      -1.50257060       1.81052829       1.24591290
Si       3.36789967       2.95776088       4.83905177
Si      -1.43634122       0.06541631       2.24068620
Si      -3.69147865       3.20773598       5.83228647
Si       2.70254250       4.23388524      -0.00000000
Si       2.98446297      -1.90502046       3.54063829
22
Lattice="8.669063242454104 0.4246648724313295 0.004590698851294765 -3.2646265267818824 8.042089989311128 -0.004590698851277992 -2.698348159229076 -4.235847827592338 7.07880846068943" Properties=species:S:1:pos:R:3 unique_starting_index=6 config_type=initial n_minim_iter=14 stress="-0.0010596864988284618 -0.0016081912312848527 0.001017606395133822 -0.0016081912312848527 -0.002552598969870597 -0.000649551032686106 0.001017606395133822 -0.000649551032686106 -3.315794742350764e-05" pbc="T T T"
Si      -2.47935934       4.79349074       6.02518346
Si       2.13411576       1.38512020       4.67359475
Si       6.12740622       3.18817367      -0.17598688
Si      -0.36532365      -0.90794625       3.62929494
Si       6.32859410      -1.29226838       2.40980440
Si      -0.57117340       3.57547152       1.04903430
Si       2.03634061       3.51727866       3.44951352
Si      -2.38624606       2.66430801       7.25479533
Si       0.00499534       5.47356397       1.61389205
Si       1.56020847       5.44382182       2.94080941
Si       1.37624797       3.96691467       1.54720358
Si       1.90276022       5.85652811       0.97431378
Si       1.58261248      -0.52871653       4.13799904
Si       2.26436082      -1.92685518       5.46491640
Si       1.81273893      -0.04424775       6.10449467
Si       0.32042999      -1.31738095       5.53160488
Si      -1.50910212       1.81505808       1.25395573
Si       3.37676405       2.95102728       4.83017950
Si      -1.44328421       0.06948746       2.24862895
Si      -3.68126386       3.20157639       5.82026203
Si       2.70221836       4.23337744      -0.00000000
Si       2.98535754      -1.90559147       3.54169958
22
Lattice="8.6711452871105 0.42544089293506665 -3.031540739328036e-05 -3.264799210611853 8.044305231525497 3.031540740999022e-05 -2.703197968972293 -4.234857148634494 7.080145917682941" Properties=species:S:1:pos:R:3 unique_starting_index=6 config_type=initial n_minim_iter=15 stress="0.00021907884233358439 0.0009078052940562439 -0.0005596332406852014 0.0009078052940562439 0.0010618106135375882 0.00035722097576728945 -0.0005596332406852014 0.00035722097576728945 -0.00036038462024404406" pbc="T T T"
Si      -2.47970591       4.79455080       6.02780819
Si       2.13360494       1.38671243       4.66983623
Si       6.12722332       3.18812764      -0.17770289
Si      -0.36674382      -0.90477195       3.63076179
Si       6.32748564      -1.29029466       2.41027937
Si      -0.57508845       3.57880939       1.05236804
Si       2.03687734       3.52130887       3.44938412
Si      -2.39106062       2.66511341       7.25784881
Si       0.00532122       5.47585817       1.61679822
Si       1.55853336       5.44659888       2.94176911
Si       1.37617655       3.96922639       1.54694643
Si       1.90385859       5.85777091       0.97561780
Si       1.58098686      -0.52807608       4.13837681
Si       2.26145477      -1.92460301       5.46334770
Si       1.80855398      -0.04173755       6.10452812
Si       0.31770710      -1.31548178       5.53319948
Si      -1.51338996       1.81805687       1.26029163
Si       3.37904551       2.95141421       4.82628919
Si      -1.44874358       0.07271045       2.25385672
Si      -3.68176104       3.20215555       5.81988460
Si       2.70317304       4.23487307      -0.00000000
Si       2.98397366      -1.90470812       3.54005780
22
Lattice="8.671850749176125 0.4242995368817493 -0.0026230041039868664 -3.2661314922176112 8.04446459303098 0.0026230041040035445 -2.7050699793360042 -4.2329711700480175 7.081354663732957" Properties=species:S:1:pos:R:3 unique_starting_index=6 config_type=initial n_minim_iter=16 stress="6.680973353851727e-06 0.0001690315254520649 -0.0005905300650204883 0.0001690315254520649 0.00016359593933221563 0.00037694280952484067 -0.0005905300650204883 0.00037694280952484067 -0.00010121384107269132" pbc="T T T"
Si      -2.47848031       4.79436879       6.02771431
Si       2.13411728       1.38509405       4.66611253
Si       6.12256312       3.19047591      -0.17317404
Si      -0.37277601      -0.90098619       3.63716217
Si       6.32463542      -1.28976668       2.41261912
Si      -0.57897384       3.58188978       1.05626336
Si       2.04035204       3.51833521       3.44419249
Si      -2.38884060       2.66376101       7.25452870
Si       0.00511067       5.47861769       1.61783601
Si       1.55584121       5.44431009       2.94343133
Si       1.37300419       3.96868206       1.54466077
Si       1.90632363       5.85738463       0.97799896
Si       1.57817224      -0.52959564       4.13792333
Si       2.26217444      -1.92174621       5.46351865
Si       1.80529376      -0.03777828       6.10335570
Si       0.31667698      -1.31670247       5.53669389
Si      -1.51418602       1.81963519       1.26299039
Si       3.37833615       2.95010576       4.82597771
Si      -1.45150377       0.07340212       2.25537695
Si      -3.68319855       3.20414332       5.82098727
Si       2.70285963       4.23438207      -0.00000000
Si       2.98339038      -1.90433581       3.53936583
22
Lattice="8.670874991688637 0.42609256105988136 -0.0008191963925583984 -3.2640943142705177 8.044334422413653 0.0008191963925750827 -2.7040802303300167 -4.234773125189377 7.079567454956338" Properties=species:S:1:pos:R:3 unique_starting_index=6 config_type=initial n_minim_iter=17 stress="0.0013627381163276186 1.3044908725779366e-05 0.0010965807705877095 1.3044908725779366e-05 0.0013748479366994875 -0.0006999613754033756 0.0010965807705877095 -0.0006999613754033756 0.0013544111146414613" pbc="T T T"
Si      -2.47702469       4.79465293       6.02556051
Si       2.13440674       1.38486619       4.66684225
Si       6.12234563       3.19308702      -0.17055374
Si      -0.37405478      -0.90147203       3.63696318
Si       6.32432087      -1.28960899       2.41190600
Si      -0.57630202       3.58139761       1.05482613
Si       2.04250091       3.51683165       3.44260427
Si      -2.38539088       2.66286110       7.25012119
Si       0.00634940       5.47912864       1.61554621
Si       1.55824241       5.44381611       2.94266209
Si       1.37455338       3.96933291       1.54469649
Si       1.90661128       5.85790167       0.97704330
Si       1.57770297      -0.52942755       4.13690536
Si       2.26310611      -1.92220945       5.46402124
Si       1.80663139      -0.03910164       6.10252415
Si       0.31760485      -1.31682521       5.53487096
Si      -1.51997188       1.82465242       1.27205627
Si       3.38742861       2.94414807       4.81661402
Si      -1.45974604       0.07733922       2.26295343
Si      -3.67318479       3.19907546       5.80833037
Si       2.70339034       4.23521350      -0.00000000
Si       2.98339738      -1.90434028       3.53937413
22
Lattice="8.670422818322603 0.4264377734475763 -0.0013955506350069567 -3.2635908158518148 8.04406961741382 0.0013955506350236257 -2.7045917114422102 -4.234503224735327 7.079000571039533" Properties=species:S:1:pos:R:3 unique_starting_index=6 config_type=initial n_minim_iter=18 stress="0.0001918457643133665 -6.89164145734288e-05 0.00023075643159523452 -6.89164145734288e-05 0.00012786943316574475 -0.000147294748888437 0.00023075643159523452 -0.000147294748888437 0.00023583592626505884" pbc="T T T"
Si      -2.47645067       4.79422446       6.02533867
Si       2.13416970       1.38513614       4.66555151
Si       6.12215585       3.19363133      -0.17019331
Si      -0.37501067      -0.90122846       3.63684914
Si       6.32370187      -1.28909523       2.41205351
Si      -0.57694032       3.58174298       1.05505744
Si       2.04266413       3.51641746       3.44215143
Si      -2.38532873       2.66318802       7.24919388
Si       0.00644867       5.47959292       1.61540843
Si       1.55817057       5.44344749       2.94282822
Si       1.37438187       3.96955283       1.54454228
Si       1.90674250       5.85782064       0.97730620
Si       1.57688738      -0.52937801       4.13617235
Si       2.26297396      -1.92165404       5.46359214
Si       1.80599116      -0.03874683       6.10169437
Si       0.31736505      -1.31661829       5.53445829
Si      -1.52055351       1.82539271       1.27339972
Si       3.38793350       2.94351335       4.81515856
Si      -1.46104581       0.07779986       2.26384201
Si      -3.67227642       3.19886466       5.80699640
Si       2.70341600       4.23525370      -0.00000000
Si       2.98291555      -1.90403272       3.53880251
22
Lattice="8.66980427825804 0.426742031547183 -0.002621077462300729 -3.2630544219877264 8.043636666579173 0.0026210774623173197 -2.705583655260987 -4.233779490602809 7.078315489166401" Properties=species:S:1:pos:R:3 unique_starting_index=6 config_type=initial n_minim_iter=19 stress="-0.0005580538226341438 -2.2775602457315266e-06 -0.00043791015452205944 -2.2775602457315266e-06 -0.0005601681222363216 0.00027952359032173653 -0.00043791015452205944 0.00027952359032173653 -0.0005565999187254606" pbc="T T T"
Si      -2.47624244       4.79456915       6.02588990
Si       2.13286992       1.38539764       4.66433592
Si       6.12271265       3.19452637      -0.17059529
Si      -0.37631304      -0.90173816       3.63617629
Si       6.32287581      -1.28913612       2.41135848
Si      -0.57717088       3.58236776       1.05504666
Si       2.04167603       3.51561659       3.44213919
Si      -2.38574325       2.66479363       7.24891078
Si       0.00652973       5.48029656       1.61553152
Si       1.55764208       5.44284832       2.94313848
Si       1.37423520       3.96952399       1.54431606
Si       1.90690658       5.85765723       0.97741432
Si       1.57557446      -0.52938590       4.13517700
Si       2.26258613      -1.92056054       5.46278396
Si       1.80478192      -0.03794306       6.10090117
Si       0.31640870      -1.31603973       5.53399943
Si      -1.52139594       1.82675198       1.27577516
Si       3.38848912       2.94224659       4.81303202
Si      -1.46342071       0.07849424       2.26528346
Si      -3.67114435       3.19896358       5.80516140
Si       2.70337493       4.23518935      -0.00000000
Si       2.98211031      -1.90351873       3.53784720
22
Lattice="8.669141504216071 0.42827241203035366 -0.004350388266018765 -3.26138724701152 8.043679811134869 0.004350388266035238 -2.707543520565353 -4.233635807220103 7.076933413631522" Properties=species:S:1:pos:R:3 unique_starting_index=6 config_type=initial n_minim_iter=20 stress="-4.01297993624747e-05 -0.00011307017270273922 1.5047581308360867e-05 -0.00011307017270273922 -0.00014509484806722578 -9.60506146535911e-06 1.5047581308360867e-05 -9.60506146535911e-06 3.204431825497328e-05" pbc="T T T"
Si      -2.47502357       4.79515650       6.02631591
Si       2.13122882       1.38618713       4.66189522
Si       6.12416201       3.19743555      -0.17185230
Si      -0.37794791      -0.90342160       3.63513779
Si       6.32166020      -1.28861823       2.41068780
Si      -0.57744399       3.58390745       1.05496789
Si       2.03988191       3.51514212       3.44179562
Si      -2.38567454       2.66747677       7.24878571
Si       0.00710900       5.48161230       1.61548303
Si       1.55792294       5.44319819       2.94335814
Si       1.37404908       3.97029858       1.54391921
Si       1.90794808       5.85855130       0.97798796
Si       1.57381370      -0.52884017       4.13357527
Si       2.26157583      -1.91933747       5.46145038
Si       1.80319453      -0.03647827       6.09894545
Si       0.31522979      -1.31573876       5.53301420
Si      -1.51970168       1.82720074       1.27635085
Si       3.38732491       2.94256681       4.81283662
Si      -1.46459996       0.07771675       2.26409679
Si      -3.67174330       3.20087613       5.80493295
Si       2.70387713       4.23597612      -0.00000000
Si       2.98079899      -1.90268169       3.53629151
22
Lattice="8.66935172915513 0.4290514993088128 -0.005033212737135607 -3.2607690818330286 8.044198504998874 0.005033212737151886 -2.7085332797004256 -4.233917307961708 7.076691432314409" Properties=species:S:1:pos:R:3 unique_starting_index=6 config_type=initial n_minim_iter=21 stress="0.00013366364009422782 0.0001692060218654583 6.99565284096151e-05 0.0001692060218654583 0.00029074059420120186 -4.465413688879509e-05 6.99565284096151e-05 -4.465413688879509e-05 2.565727889916298e-05" pbc="T T T"
Si      -2.47452837       4.79576195       6.02636755
Si       2.13097758       1.38633924       4.66112075
Si       6.12460772       3.19818078      -0.17197126
Si      -0.37847602      -0.90320096       3.63492108
Si       6.32112442      -1.28828449       2.41053747
Si      -0.57747489       3.58484871       1.05535709
Si       2.04014302       3.51577228       3.44177035
Si      -2.38617599       2.66791331       7.24866269
Si       0.00743278       5.48261267       1.61558779
Si       1.55811560       5.44369473       2.94362346
Si       1.37418012       3.97123280       1.54370370
Si       1.90849650       5.85900992       0.97838016
Si       1.57319321      -0.52873786       4.13306797
Si       2.26135714      -1.91890412       5.46110364
Si       1.80238987      -0.03606924       6.09831127
Si       0.31503225      -1.31550807       5.53298773
Si      -1.51862314       1.82734375       1.27639096
Si       3.38682027       2.94297076       4.81342682
Si      -1.46501086       0.07714757       2.26326461
Si      -3.67243927       3.20215183       5.80533368
Si       2.70429132       4.23662501      -0.00000000
Si       2.98040922      -1.90243290       3.53582911
