8
Lattice="5.762090000000002 -3.2450675027150306e-16 5.496236244042671e-16 -1.0600401234553327 5.663744000638167 -5.496236244042648e-16 -2.6074139867304598 -2.619017377385193 4.677065331477747" Properties=species:S:1:pos:R:3 unique_starting_index=38 config_type=initial n_minim_iter=1 pbc="T T T"
Si       2.94962687       3.37467305       1.40455218
Si       0.16702332       0.90109835       3.27251315
Si      -0.85499120      -0.32994529       3.27251315
Si       1.92761235       2.14362941       1.40455218
Si       1.54133176       0.13554386       3.56438307
Si       1.94430992       4.58468759       1.11268226
Si       0.55330392       2.90918390       1.11268226
Si       0.15032575      -1.53995983       3.56438307
8
Lattice="5.806721286073844 -0.007752856509368619 0.0010754215859545809 -1.075871384081673 5.706187252959836 -0.0010754215859545549 -2.623213385319497 -2.635200802772253 4.696867991186294" Properties=species:S:1:pos:R:3 unique_starting_index=38 config_type=initial n_minim_iter=2 pbc="T T T"
Si       2.96936888       3.39497890       1.41060849
Si       0.16755129       0.90805561       3.28625950
Si      -0.86173258      -0.33174416       3.28625950
Si       1.94008501       2.15517913       1.41060849
Si       1.55455023       0.13341453       3.58000545
Si       1.95278578       4.61579570       1.11686254
Si       0.55308607       2.92982021       1.11686254
Si       0.15485052      -1.55256096       3.58000545
8
Lattice="5.998489100154108 -0.04323067966017559 0.00912549616896989 -1.1460228196438538 5.888155235146835 -0.009125496168969826 -2.687330801143585 -2.7056985567827194 4.773048460121552" Properties=species:S:1:pos:R:3 unique_starting_index=38 config_type=initial n_minim_iter=3 pbc="T T T"
Si       3.05400061       3.47982415       1.43409704
Si       0.17126145       0.93635394       3.33895142
Si      -0.88886536      -0.34059697       3.33895142
Si       1.99387379       2.20287324       1.43409704
Si       1.61362899       0.12170722       3.64141340
Si       1.98790863       4.74770477       1.13163506
Si       0.55150626       3.01751996       1.13163506
Si       0.17722662      -1.60847759       3.64141340
8
Lattice="6.6720417038889055 -0.20053847722619636 0.06849985874409578 -1.4245578442503501 6.521272201623375 -0.06849985874409517 -2.8724269817958334 -2.9539081102117235 4.957775233056026" Properties=species:S:1:pos:R:3 unique_starting_index=38 config_type=initial n_minim_iter=4 pbc="T T T"
Si       3.34185949       3.74656610       1.49321283
Si       0.19539762       1.02016222       3.46456239
Si      -0.96680289      -0.37973917       3.46456239
Si       2.17965898       2.34666471       1.49321283
Si       1.84172317       0.05307008       3.80379972
Si       2.08840225       5.18687856       1.15397550
Si       0.53333342       3.31375684       1.15397550
Si       0.28665434      -1.82005164       3.80379972
8
Lattice="7.200858594595762 -0.2767905605790811 0.1607080647686018 -1.5967938561377424 7.027035427176249 -0.16070806476859983 -3.0022193353013082 -3.2089268744950736 5.009337815313428" Properties=species:S:1:pos:R:3 unique_starting_index=38 config_type=initial n_minim_iter=5 pbc="T T T"
Si       3.61705333       3.98730771       1.51331209
Si       0.25161102       1.07992917       3.49602569
Si      -1.01520825      -0.44598831       3.49602569
Si       2.35023406       2.46139024       1.51331209
Si       2.04782900      -0.01757649       3.87541992
Si       2.20783303       5.55096235       1.13391786
Si       0.55401608       3.55889589       1.13391786
Si       0.39401205      -2.00964295       3.87541992
8
Lattice="7.1552278121763795 -0.17227068295418824 0.1821036183958053 -1.4856632958593314 7.001411772184543 -0.18210361839580352 -3.0117111400732672 -3.2676838867311604 4.916952761634606" Properties=species:S:1:pos:R:3 unique_starting_index=38 config_type=initial n_minim_iter=6 pbc="T T T"
Si       3.66792580       4.04072154       1.48447437
Si       0.28526250       1.08100276       3.43247835
Si      -1.01007272      -0.47926293       3.43247835
Si       2.37259057       2.48045585       1.48447437
Si       2.04584642      -0.00464206       3.81295421
Si       2.27691942       5.57153233       1.10399852
Si       0.61200665       3.56610067       1.10399852
Si       0.38093366      -2.01007372       3.81295421
8
Lattice="7.143845050462888 -0.15238663331034802 0.2178060035273774 -1.4640245586978635 6.993881317449154 -0.21780600352737547 -2.9866186322680583 -3.2989497908357155 4.824047594274771" Properties=species:S:1:pos:R:3 unique_starting_index=38 config_type=initial n_minim_iter=7 pbc="T T T"
Si       3.68829604       4.04369622       1.45627639
Si       0.30953146       1.07030666       3.36777116
Si      -0.99509447      -0.50114993       3.36777116
Si       2.38367011       2.47223963       1.45627639
Si       2.06230965      -0.02230864       3.75492755
Si       2.29187415       5.56555216       1.06912000
Si       0.63089192       3.56485494       1.06912000
Si       0.40132742      -2.02300587       3.75492755
8
Lattice="7.229455220020622 0.005011818128750498 0.433972728079054 -1.3250620780110085 7.106986589689158 -0.4339727280790516 -2.9214382098491054 -3.5815348475147717 4.343257063697666" Properties=species:S:1:pos:R:3 unique_starting_index=38 config_type=initial n_minim_iter=8 pbc="T T T"
Si       3.91619670       4.17892909       1.30870408
Si       0.46571020       1.03661103       3.03455289
Si      -0.93324203      -0.64846410       3.03455289
Si       2.51724447       2.49385396       1.30870408
Si       2.20603000      -0.11794195       3.46621151
Si       2.46118622       5.67714473       0.87704546
Si       0.77692466       3.64840693       0.87704546
Si       0.52176844      -2.14667974       3.46621151
8
Lattice="6.9135553149277005 -0.024579596001002603 0.6347241706846901 -1.2960329618142052 6.7910345169933946 -0.6347241706846873 -2.602090564944514 -3.5548057528249495 3.650949504035779" Properties=species:S:1:pos:R:3 unique_starting_index=38 config_type=initial n_minim_iter=9 pbc="T T T"
Si       3.79842873       3.92409697       1.09962437
Si       0.55624072       0.90070121       2.55132501
Si      -0.78299720      -0.71244644       2.55132501
Si       2.45919081       2.31094932       1.09962437
Si       2.23268404      -0.26467996       3.01013395
Si       2.34452610       5.35753432       0.64081543
Si       0.78274749       3.47633049       0.64081543
Si       0.67090543      -2.14588379       3.01013395
8
Lattice="7.387046655327673 -0.23727367469100524 0.8075716560424782 -1.5922040787326122 7.217315515921163 -0.8075716560424763 -2.579376493140454 -3.754062249042972 3.842304066862687" Properties=species:S:1:pos:R:3 unique_starting_index=38 config_type=initial n_minim_iter=10 pbc="T T T"
Si       3.97033827       4.01168629       1.16996585
Si       0.63342322       0.88653384       2.67233806
Si      -0.75487251      -0.78570525       2.67233806
Si       2.58204254       2.33944720       1.16996585
Si       2.46213542      -0.41834112       3.21346127
Si       2.35131010       5.56913124       0.62884263
Si       0.75333034       3.64432216       0.62884263
Si       0.86415566      -2.34315020       3.21346127
8
Lattice="7.2355182047183675 -0.1872694995249935 0.7289219462926194 -1.5151769783932838 7.077572484998667 -0.7289219462926165 -2.5973759053324135 -3.6633241049470673 3.7921258693968554" Properties=species:S:1:pos:R:3 unique_starting_index=38 config_type=initial n_minim_iter=11 pbc="T T T"
Si       3.90371195       3.98522867       1.15009032
Si       0.60167490       0.90691545       2.64203540
Si      -0.78074694      -0.75824837       2.64203540
Si       2.52129012       2.32006485       1.15009032
Si       2.37127018      -0.37126643       3.15013205
Si       2.32179689       5.48947637       0.64199367
Si       0.75169483       3.59824673       0.64199367
Si       0.80116813      -2.26249607       3.15013205
8
Lattice="7.171942848140204 -0.11843114509075098 0.655161730071977 -1.4358177101804341 7.027746271476304 -0.6551617300719749 -2.6597669687605214 -3.6275849238195814 3.784275172194816" Properties=species:S:1:pos:R:3 unique_starting_index=38 config_type=initial n_minim_iter=12 pbc="T T T"
Si       3.89956492       4.02431660       1.14501673
Si       0.57846755       0.94576929       2.63925831
Si      -0.82320704      -0.74258499       2.63925831
Si       2.49789033       2.33596232       1.14501673
Si       2.30857865      -0.32328115       3.12156695
Si       2.33388926       5.49143391       0.66270809
Si       0.76777923       3.60501277       0.66270809
Si       0.74246862      -2.20970229       3.12156695
8
Lattice="7.209769295128208 -0.13707168069388098 0.6698341287133287 -1.4610989489715587 7.0614978436544105 -0.6698341287133263 -2.6565017565304783 -3.6430587534016468 3.8146736735502214" Properties=species:S:1:pos:R:3 unique_starting_index=38 config_type=initial n_minim_iter=13 pbc="T T T"
Si       3.91667259       4.03385982       1.15672545
Si       0.58796583       0.94886680       2.65794809
Si      -0.82450429      -0.75249099       2.65794809
Si       2.50420246       2.33250203       1.15672545
Si       2.32749945      -0.34181354       3.15036694
Si       2.32800277       5.50625962       0.66430660
Si       0.76466884       3.62318237       0.66430660
Si       0.76416552      -2.22489079       3.15036694
8
Lattice="7.188416644098858 -0.12765743272945085 0.6595992140247979 -1.4479171768606907 7.042241554948273 -0.6595992140247962 -2.65942608480833 -3.6323182119650315 3.807368810191764" Properties=species:S:1:pos:R:3 unique_starting_index=38 config_type=initial n_minim_iter=14 pbc="T T T"
Si       3.91085959       4.03292271       1.15482955
Si       0.58518980       0.95372116       2.65253913
Si      -0.82978650      -0.75065539       2.65253913
Si       2.49588329       2.32854616       1.15482955
Si       2.31537454      -0.33763208       3.14196972
Si       2.32324826       5.49600940       0.66539895
Si       0.76569856       3.61989940       0.66539895
Si       0.75782483      -2.21374208       3.14196972
8
Lattice="7.187587324771791 -0.12955173489473068 0.6612071074859015 -1.4496265793105225 7.041077899284369 -0.6612071074859002 -2.6568846785016955 -3.6318452873143436 3.8099741620703482" Properties=species:S:1:pos:R:3 unique_starting_index=38 config_type=initial n_minim_iter=15 pbc="T T T"
Si       3.91193175       4.03300979       1.15658588
Si       0.58761955       0.95526396       2.65338815
Si      -0.83085597      -0.75332750       2.65338815
Si       2.49345622       2.32441833       1.15658588
Si       2.31601798      -0.34226896       3.14489844
Si       2.31857483       5.49320379       0.66507559
Si       0.76505779       3.62195125       0.66507559
Si       0.76250094      -2.21352150       3.14489844
8
Lattice="7.1769809076790905 -0.13331671893069844 0.6650094714338478 -1.4513760622345735 7.029959873477874 -0.6650094714338476 -2.6472875039537467 -3.627242428405779 3.8134901861433055" Properties=species:S:1:pos:R:3 unique_starting_index=38 config_type=initial n_minim_iter=16 pbc="T T T"
Si       3.91277426       4.03150627       1.16098117
Si       0.59558387       0.96041835       2.65250888
Si      -0.83445721      -0.76210413       2.65250888
Si       2.48273318       2.30898379       1.16098117
Si       2.31511239      -0.35688116       3.15025330
Si       2.30161990       5.47934533       0.66323675
Si       0.76320466       3.62628330       0.66323675
Si       0.77669715      -2.20994319       3.15025330
8
Lattice="7.123769398857476 -0.15938165489845782 0.7101579658752334 -1.4672069135982115 6.972861452280976 -0.7101579658752393 -2.574714633568747 -3.6172513276499636 3.8045728743068024" Properties=species:S:1:pos:R:3 unique_starting_index=38 config_type=initial n_minim_iter=17 pbc="T T T"
Si       3.92043385       4.02037632       1.17860543
Si       0.65580764       0.97589075       2.62596730
Si      -0.83858630      -0.82414645       2.62596730
Si       2.42603991       2.22033911       1.17860543
Si       2.32722387      -0.45054051       3.16542574
Si       2.21086150       5.40084751       0.63914699
Si       0.75462369       3.64677038       0.63914699
Si       0.87098606      -2.20461764       3.16542574
8
Lattice="7.312134942674804 0.047218167434717205 0.669185517100333 -1.2987865192708794 7.196019771553017 -0.6691855171003391 -2.7871143527910256 -3.8038979367935997 3.8317115512894593" Properties=species:S:1:pos:R:3 unique_starting_index=38 config_type=initial n_minim_iter=18 pbc="T T T"
Si       4.14074494       4.32824220       1.18978257
Si       0.70548903       1.06243248       2.64192885
Si      -0.91451113      -0.88890076       2.64192885
Si       2.52074477       2.37690897       1.18978257
Si       2.35271437      -0.39408381       3.17328481
Si       2.40605138       5.67940071       0.65842661
Si       0.87351944       3.83342526       0.65842661
Si       0.82018242      -2.24005926       3.17328481
8
Lattice="7.105077476165462 0.007055576759160718 0.6660744777497511 -1.3001716780635846 6.985107682136222 -0.6660744777497574 -2.677688689040189 -3.682681257858452 3.73943851501519" Properties=species:S:1:pos:R:3 unique_starting_index=38 config_type=initial n_minim_iter=19 pbc="T T T"
Si       4.00264094       4.17400630       1.16128373
Si       0.68871799       1.01952780       2.57815465
Si      -0.87542409      -0.86452290       2.57815465
Si       2.43849885       2.28995560       1.16128373
Si       2.29423951      -0.40490517       3.10145280
Si       2.30715528       5.49007508       0.63798558
Si       0.83297734       3.71438858       0.63798558
Si       0.82006156      -2.18059168       3.10145280
8
Lattice="7.1842110033144815 -0.029602424775161864 0.7048593579104511 -1.3507620454743519 7.056146677911633 -0.7048593579104598 -2.6653540160454825 -3.721960311237826 3.7779728472570078" Properties=species:S:1:pos:R:3 unique_starting_index=38 config_type=initial n_minim_iter=20 pbc="T T T"
Si       4.03301419       4.18689254       1.17586154
Si       0.70813125       1.01247426       2.60211117
Si      -0.86491952      -0.88230719       2.60211117
Si       2.45996342       2.29211110       1.17586154
Si       2.33948834      -0.43787237       3.14410901
Si       2.30730425       5.52358865       0.63386370
Si       0.82860633       3.74245773       0.63386370
Si       0.86079042      -2.21900329       3.14410901
