6
Lattice="4.769828884566302 -6.057385069311321e-16 -1.3654178620715704e-12 6.00061824007921e-16 4.91215670613279 6.16831796185928e-14 1.444681499857427e-12 -5.792492919420797e-14 4.718773577763547" Properties=species:S:1:pos:R:3 unique_starting_index=12 config_type=initial n_minim_iter=19 energy=-975.4992594099101 free_energy=-975.4992594099101 pbc="T T T"
Si       0.73254447       2.45607835       3.36819267
Si       0.73254447       2.45607835       1.35058090
Si       3.11715336       1.24224966       2.35938679
Si       3.11715336       3.66990704       2.35938679
Si      -0.49131512       0.00000000       0.00000000
Si       1.95648931       0.00000000      -0.00000000
