14
Lattice="8.417046146896398 -1.467441513466171 1.0727434386246637 -1.4898055433122124 6.863479178506496 -0.7522255181926794 -2.900923196895603 0.0035802243906235803 6.495962928163692" Properties=species:S:1:pos:R:3 unique_starting_index=20 config_type=initial n_minim_iter=1 energy=-2280.0949318248095 free_energy=-2280.0949318248095 pbc="T T T"
Si       2.94315349       3.22086136       6.41596699
Si       5.75421531       1.54891296       1.03472129
Si       1.08316391       2.17875653       0.40051386
Si      -1.72789791       3.85070493       5.78175956
Si       4.51914044       3.18465809       4.40294803
Si       5.65652147       1.16472590       3.12768840
Si      -0.49282303       2.21495980       2.41353282
Si      -1.63020407       4.23489199       3.68879245
Si       0.72366812       3.67150991       1.68790858
Si      -0.52187362       2.54991211       4.83267474
Si       3.30264928       1.72810798       5.12857227
Si       4.54819102       2.84970578       1.98380611
Si       2.84583677       3.69187412       0.38945909
Si       1.18048063       1.70774377       6.42702176
14
Lattice="8.57363353228208 -1.505877452862794 1.0723925045956635 -1.552104329771933 6.89642192307398 -0.6814832831371317 -2.9143943208593455 0.0686415237890423 6.264962197043782" Properties=species:S:1:pos:R:3 unique_starting_index=20 config_type=initial n_minim_iter=2 stress="-0.02043033704239307 -0.01677741747043234 6.91219934481367e-05 -0.01677741747043234 -0.018179992631916417 0.01975524453350082 6.91219934481367e-05 0.01975524453350082 -0.022512315509160725" pbc="T T T"
Si       3.01117725       3.28612778       6.24465947
Si       5.84064668       1.52721563       1.05424811
Si       1.09595763       2.17305822       0.41121194
Si      -1.73351180       3.93197036       5.60162331
Si       4.60052291       3.17722244       4.30038394
Si       5.77093393       1.20479648       3.05152722
Si      -0.49338803       2.28196355       2.35548748
Si      -1.66379905       4.25438951       3.60434420
Si       0.74369417       3.70079841       1.66208589
Si      -0.50686333       2.61635334       4.69208744
Si       3.36344072       1.75838758       4.99378552
Si       4.61399821       2.84283265       1.96378398
Si       2.85765866       3.67190253       0.42318043
Si       1.24947622       1.78728346       6.23269099
14
Lattice="8.645380478457922 -1.5039246688961718 1.080258011775443 -1.5590979307283843 6.923705631281223 -0.6819494087561958 -2.927729858714094 0.06282883329867409 6.21526225024752" Properties=species:S:1:pos:R:3 unique_starting_index=20 config_type=initial n_minim_iter=3 stress="0.000910185247853418 -0.010506715652134502 0.00481425674042651 -0.010506715652134502 0.010481957636982064 0.008730974062897051 0.00481425674042651 0.008730974062897051 -0.04652679436832461" pbc="T T T"
Si       3.04973634       3.30438892       6.20355994
Si       5.88940323       1.53547521       1.05947190
Si       1.10881635       2.17822088       0.41001091
Si      -1.73085055       3.94713459       5.55409895
Si       4.64876128       3.18164550       4.27376640
Si       5.82770062       1.22655537       3.03539856
Si      -0.49020859       2.30096430       2.33980445
Si      -1.66914793       4.25605442       3.57817229
Si       0.76287065       3.71745065       1.64860483
Si      -0.49711873       2.62909168       4.65761871
Si       3.39568204       1.76515915       4.96496602
Si       4.65567142       2.85351811       1.95595214
Si       2.87886293       3.68066525       0.42443468
Si       1.27968976       1.80194454       6.18913617
14
Lattice="8.876368028671518 -1.4230221304660642 1.1104167859893734 -1.556780086864224 6.816240467267599 -0.6714604944428256 -2.994257701570931 0.06664779060175656 6.300739170866427" Properties=species:S:1:pos:R:3 unique_starting_index=20 config_type=initial n_minim_iter=4 stress="-0.005753027208962929 0.002635192763681626 -0.014156577504798215 0.002635192763681626 0.03931901248403627 0.005312206243612044 -0.014156577504798215 0.005312206243612044 0.001961700586798908" pbc="T T T"
Si       3.16465886       3.32406070       6.31320040
Si       6.03742278       1.54584151       1.08761925
Si       1.16067138       2.13580543       0.42649506
Si      -1.71209254       3.91402462       5.65207621
Si       4.80128754       3.10955493       4.33985888
Si       6.01897143       1.33700195       3.08996950
Si      -0.47595730       2.35031119       2.39983659
Si      -1.69364119       4.12286418       3.64972596
Si       0.85481991       3.68467112       1.67710158
Si      -0.46095886       2.63835047       4.74028617
Si       3.47051033       1.77519501       5.06259388
Si       4.78628910       2.82151566       1.99940929
Si       2.92929781       3.59082796       0.45112334
Si       1.39603243       1.86903817       6.28857212
14
Lattice="9.036102437487147 -1.3734623806011064 1.1757790082204573 -1.5692270544519382 6.691562015474909 -0.6949327082288868 -3.0025970264752115 0.0482930266335385 6.305072635358657" Properties=species:S:1:pos:R:3 unique_starting_index=20 config_type=initial n_minim_iter=5 stress="0.032651842433050936 0.00917489364308595 0.022200720305668237 0.00917489364308595 -0.00731115098189353 -0.021835236077815273 0.022200720305668237 -0.021835236077815273 0.007436996614561592" pbc="T T T"
Si       3.27154903       3.27300371       6.35212880
Si       6.14698808       1.52901832       1.12679505
Si       1.19272933       2.09338895       0.43379014
Si      -1.68270972       3.83737435       5.65912388
Si       4.92222866       3.02603135       4.37402564
Si       6.15866790       1.36480146       3.13674926
Si      -0.45795031       2.34036131       2.41189330
Si      -1.69438955       4.00159120       3.64916967
Si       0.91453429       3.62152634       1.67637907
Si      -0.41619767       2.59791613       4.75404648
Si       3.54974407       1.74486632       5.10953986
Si       4.88047603       2.76847653       2.03187246
Si       2.97039542       3.50447844       0.46922034
Si       1.49388294       1.86191422       6.31669859
14
Lattice="9.225701885893198 -1.2650952961270503 1.106064322707908 -1.5537058328691788 6.4718551412073095 -0.6383485749515644 -3.117733770954556 0.07002918151215566 6.303691461994788" Properties=species:S:1:pos:R:3 unique_starting_index=20 config_type=initial n_minim_iter=6 stress="0.061336715778874513 0.013646141804713836 -0.02006598886922029 0.013646141804713836 -0.0020492540108447647 0.0016561713401450357 -0.02006598886922029 0.0016561713401450357 0.006145435770565947" pbc="T T T"
Si       3.31424915       3.25889090       6.33026075
Si       6.28633190       1.50477358       1.08054335
Si       1.24001313       2.01789812       0.44114646
Si      -1.73206961       3.77201545       5.69086386
Si       5.02619677       2.89569957       4.31574835
Si       6.31784211       1.49494436       3.09444039
Si      -0.47193449       2.38108945       2.45565886
Si      -1.76357982       3.78184466       3.67696682
Si       1.02399065       3.54516912       1.66527908
Si      -0.39274539       2.57878071       4.76101842
Si       3.53027163       1.73161991       5.10612813
Si       4.94700767       2.69800832       2.01038879
Si       2.99531889       3.32608411       0.48129753
Si       1.55894339       1.95070491       6.29010968
14
Lattice="9.120410380690949 -1.1629003850338884 1.2253439263535313 -1.50110800996385 6.217519692340604 -0.6825244198320012 -2.9945127971217356 0.03122749030934007 6.2911521156403065" Properties=species:S:1:pos:R:3 unique_starting_index=20 config_type=initial n_minim_iter=7 stress="0.07358691394302798 0.015909550505090648 -0.0030206932749479165 0.015909550505090648 0.014056140894064663 -0.02118322180648109 -0.0030206932749479165 -0.02118322180648109 0.08367367521958476" pbc="T T T"
Si       3.36597620       3.18386085       6.37819098
Si       6.23158844       1.43906330       1.13944719
Si       1.25881337       1.90198595       0.45578064
Si      -1.60679886       3.64678350       5.69452443
Si       5.04020644       2.64472011       4.32895931
Si       6.34572571       1.64706653       3.17790921
Si      -0.41541687       2.44112669       2.50501231
Si      -1.72093613       3.43878027       3.65606241
Si       1.17377297       3.44279431       1.63853756
Si      -0.22989110       2.51868081       4.77426177
Si       3.45101661       1.64305249       5.19543407
Si       4.85468068       2.56716599       2.05970985
Si       2.89150062       3.06403661       0.52542811
Si       1.73328895       2.02181019       6.30854351
14
Lattice="9.045009172750092 -1.1154011131219876 1.2166938460895251 -1.4555309755061314 6.170171470653032 -0.6902192102464442 -2.9754630133438376 0.005119281529413532 6.257646799514652" Properties=species:S:1:pos:R:3 unique_starting_index=20 config_type=initial n_minim_iter=8 stress="0.03497777244890711 0.025091352006060157 0.012379408979518027 0.025091352006060157 -0.005717019637484624 -0.03405289349996188 0.012379408979518027 -0.03405289349996188 0.06371625236709731" pbc="T T T"
Si       3.35502230       3.17139053       6.33581135
Si       6.19319914       1.45203480       1.12467989
Si       1.25899289       1.88849911       0.44831008
Si      -1.57918396       3.60785484       5.65944154
Si       5.01371809       2.62432499       4.29174470
Si       6.31345397       1.68001200       3.15574969
Si      -0.39970290       2.43556465       2.49237673
Si      -1.69943879       3.37987764       3.62837174
Si       1.19860559       3.42672121       1.61750338
Si      -0.20947336       2.49868504       4.74509600
Si       3.41540959       1.63316843       5.16661806
Si       4.82348854       2.56120460       2.03902543
Si       2.87781127       3.03721607       0.51785060
Si       1.73620391       2.02267357       6.26627083
14
Lattice="8.8370521268511 -1.0785283119205595 1.1178771710040594 -1.395614531908131 6.107210253661111 -0.6524540634824361 -2.9787006637382953 0.015156912999626026 6.26088248759724" Properties=species:S:1:pos:R:3 unique_starting_index=20 config_type=initial n_minim_iter=9 stress="-0.027840775263128288 0.02884641147694062 0.004424936594232019 0.02884641147694062 0.009837094672781425 -0.04959788832739095 0.004424936594232019 -0.04959788832739095 0.028456042594271216" pbc="T T T"
Si       3.25086849       3.19750110       6.29384070
Si       6.09002554       1.44306599       1.05097569
Si       1.21186844       1.84633776       0.43246490
Si      -1.62728861       3.60077286       5.67532990
Si       4.84840642       2.57882801       4.22763256
Si       6.20054471       1.74968141       3.09953121
Si      -0.38566949       2.46501085       2.49867303
Si      -1.73780778       3.29415745       3.62677438
Si       1.21828171       3.42126164       1.59584575
Si      -0.22680302       2.51306913       4.74896681
Si       3.24445523       1.62257721       5.13045985
Si       4.68953996       2.53076973       1.97733878
Si       2.84248624       2.95547089       0.51344190
Si       1.62025069       2.08836797       6.21286369
14
Lattice="8.715563650846462 -0.9924442765168545 1.0979242597450731 -1.323539120448387 6.03822793023275 -0.5788580046695887 -2.9471153851122387 0.06414790066851125 6.288065341199353" Properties=species:S:1:pos:R:3 unique_starting_index=20 config_type=initial n_minim_iter=10 stress="-0.0999041468590583 0.06212597481556847 -0.009761162840518006 0.06212597481556847 -0.020030237429146225 -0.009523031306634393 -0.009761162840518006 -0.009523031306634393 0.0026911133940477443" pbc="T T T"
Si       3.24665177       3.28125884       6.36070501
Si       6.04667863       1.48473164       1.05998433
Si       1.19825737       1.82867271       0.44642659
Si      -1.60176949       3.62519992       5.74714727
Si       4.79613610       2.62844620       4.26765224
Si       6.14326926       1.82999006       3.11457979
Si      -0.35122696       2.48148536       2.53947936
Si      -1.69836011       3.27994149       3.69255181
Si       1.24578297       3.43563284       1.64208618
Si      -0.20508131       2.55474834       4.80856910
Si       3.19912618       1.67429872       5.16504542
Si       4.64999046       2.55518321       1.99856249
Si       2.85876114       2.93131179       0.54989755
Si       1.58614801       2.17861977       6.25723405
14
Lattice="8.699357292400036 -1.1696956751803949 1.105032884566428 -1.4669950426264318 6.019554607512788 -0.5953494990243134 -2.924940668873402 0.11145602877955861 6.265070528840956" Properties=species:S:1:pos:R:3 unique_starting_index=20 config_type=initial n_minim_iter=11 stress="-0.0050317477954147545 -0.013286994771752514 0.025373220680797 -0.013286994771752514 0.02184288225884224 0.013783849632912498 0.025373220680797 0.013783849632912498 0.06832076206624443" pbc="T T T"
Si       3.18324983       3.19996243       6.34892282
Si       6.00914744       1.34248392       1.04312165
Si       1.12417175       1.76135253       0.42583109
Si      -1.70172586       3.61883104       5.73163226
Si       4.70029441       2.48662991       4.25081949
Si       6.08595948       1.68572989       3.08991335
Si      -0.39287283       2.47468505       2.52393443
Si      -1.77853790       3.27558507       3.68484056
Si       1.17183527       3.40567224       1.63066821
Si      -0.24998464       2.53918544       4.81810821
Si       3.13558631       1.55564272       5.14408571
Si       4.55740622       2.42212952       1.95664571
Si       2.78917501       2.81868757       0.54315257
Si       1.51824657       2.14262739       6.23160135
14
Lattice="8.653364345568383 -1.241311524408265 1.03868871325811 -1.510122677140407 5.9933421397235325 -0.6406217756814419 -2.9654739725875663 0.07734025046432441 6.258828688484641" Properties=species:S:1:pos:R:3 unique_starting_index=20 config_type=initial n_minim_iter=12 stress="-0.019801615328383815 -0.03643554075033752 0.004399138368701015 -0.03643554075033752 0.0009386339293853416 -0.004718423341650917 0.004399138368701015 -0.004718423341650917 -0.01075162942548816" pbc="T T T"
Si       3.09286462       3.10365537       6.25999248
Si       5.96294887       1.27516798       0.96960676
Si       1.08490308       1.72571549       0.39690315
Si      -1.78518117       3.55420289       5.68728887
Si       4.60241043       2.39615833       4.17225135
Si       6.01009947       1.58676122       2.99377193
Si      -0.42464273       2.43321254       2.48464428
Si      -1.83233177       3.24260964       3.66312370
Si       1.11495532       3.36030215       1.57850900
Si      -0.31972204       2.48176217       4.78578015
Si       3.06281238       1.46906871       5.07838662
Si       4.49748974       2.34760870       1.87111547
Si       2.74822339       2.77211570       0.48973551
Si       1.42954431       2.05725517       6.16716012
14
Lattice="8.613868870434247 -1.2263554281160176 1.039873741268953 -1.498319414456258 5.967442194667124 -0.6189532547010912 -2.947996996834463 0.0970654131046339 6.262711998456697" Properties=species:S:1:pos:R:3 unique_starting_index=20 config_type=initial n_minim_iter=13 stress="-0.05398458051368014 -0.04481230935782466 0.0029562090543658803 -0.04481230935782466 0.0019703301346746553 0.03233149437520891 0.0029562090543658803 0.03233149437520891 0.033002412610446175" pbc="T T T"
Si       3.11624637       3.13538058       6.27681337
Si       5.94724682       1.28019626       0.97200601
Si       1.05130609       1.70277160       0.40681911
Si      -1.77969436       3.55795592       5.71162648
Si       4.57027349       2.40866884       4.19471892
Si       5.98492217       1.58065941       2.98073925
Si      -0.40272103       2.42948334       2.48891356
Si      -1.81736971       3.25749277       3.70289324
Si       1.11112012       3.35171282       1.58488655
Si      -0.32280877       2.48891644       4.80706211
Si       3.05643234       1.48643936       5.09874593
Si       4.49036123       2.34923574       1.87657037
Si       2.72811496       2.78531036       0.53334495
Si       1.43943749       2.05284182       6.15028753
14
Lattice="8.719213721432538 -1.1335535280903755 1.0292813949805037 -1.4519221392542794 5.9221078338866935 -0.5901347430445437 -2.9849813956967735 0.08906635111553689 6.1932533374841725" Properties=species:S:1:pos:R:3 unique_starting_index=20 config_type=initial n_minim_iter=14 stress="-0.043864626338358484 0.02094480237262665 0.00462107305083672 0.02094480237262665 0.028316912197829704 0.0313837644275521 0.00462107305083672 0.0313837644275521 -0.0181975846514477" pbc="T T T"
Si       3.22777151       3.19552284       6.22078965
Si       6.04591524       1.33514231       0.95315065
Si       1.05453868       1.68209781       0.41161034
Si      -1.76360506       3.54247835       5.67924934
Si       4.65747241       2.43929662       4.15404550
Si       6.08078907       1.64292261       2.95114223
Si      -0.37516222       2.43832404       2.47835449
Si      -1.79847888       3.23469804       3.68125776
Si       1.15965923       3.34862163       1.57545871
Si      -0.30004292       2.49459117       4.78351409
Si       3.12265096       1.52899903       5.05694128
Si       4.58235310       2.38302949       1.84888590
Si       2.78891121       2.80923786       0.55865080
Si       1.49339898       2.06838280       6.07374919
14
Lattice="8.761410291574142 -1.1488100525159781 0.971228830805739 -1.4738516424562236 5.878546039183279 -0.5931658938964496 -3.048413341560244 0.08449819938171792 6.219014561773676" Properties=species:S:1:pos:R:3 unique_starting_index=20 config_type=initial n_minim_iter=15 stress="0.02127928153264058 0.014941438677191629 -0.040264532167043766 0.014941438677191629 0.030970248429896877 0.02312479128830955 -0.040264532167043766 0.02312479128830955 0.002638232239427046" pbc="T T T"
Si       3.19398581       3.15731431       6.19165569
Si       6.06722432       1.30452323       0.90450337
Si       1.04515949       1.65691987       0.40542180
Si      -1.82807902       3.50971095       5.69257413
Si       4.64932587       2.39053832       4.10979118
Si       6.08187224       1.61568295       2.90268132
Si      -0.41018056       2.42369586       2.48728632
Si      -1.84272694       3.19855123       3.69439618
Si       1.14192686       3.31569928       1.55545564
Si      -0.34877799       2.46881830       4.78829499
Si       3.09721845       1.49853491       5.04162186
Si       4.58792330       2.34541588       1.80878251
Si       2.78905049       2.77507963       0.54562951
Si       1.45009482       2.03915456       6.05144798
14
Lattice="8.724493772838764 -1.2094243488924914 0.9917996808839595 -1.517827348067813 5.87771003584029 -0.6002334624033965 -3.0167551493972 0.10345672667653642 6.220743323591028" Properties=species:S:1:pos:R:3 unique_starting_index=20 config_type=initial n_minim_iter=16 stress="0.0005407675080011648 0.025982710353906202 0.019110484067807968 0.025982710353906202 -0.011406153174677467 -0.03263195376063979 0.019110484067807968 -0.03263195376063979 -0.011415386066189448" pbc="T T T"
Si       3.17857426       3.13425074       6.17618939
Si       6.01484809       1.25178391       0.88466913
Si       1.01133701       1.63749168       0.43612016
Si      -1.82493681       3.51995851       5.72764041
Si       4.62992941       2.33229522       4.09525278
Si       6.04462308       1.58279949       2.89410217
Si      -0.44001813       2.43944720       2.51705676
Si      -1.85471180       3.18894292       3.71820737
Si       1.10409256       3.29441070       1.52487275
Si      -0.34629369       2.46003278       4.82046355
Si       3.08581872       1.47733172       5.08743680
Si       4.53620496       2.31170964       1.79184599
Si       2.75606350       2.72909297       0.57069245
Si       1.43384778       2.04264944       6.04161709
14
Lattice="8.741484570086234 -1.2219252223561705 0.9606032920486138 -1.5361050046578903 5.870036364357251 -0.54902134214688 -3.0378770647016857 0.15524684820469312 6.222420118724663" Properties=species:S:1:pos:R:3 unique_starting_index=20 config_type=initial n_minim_iter=17 stress="0.04923673056952614 0.0010882142859562852 0.013715256831558385 0.0010882142859562852 -0.02340366368545867 -0.023076615117003454 0.013715256831558385 -0.023076615117003454 -0.04405155353188995" pbc="T T T"
Si       3.16102886       3.17037554       6.16718240
Si       6.00817864       1.25029263       0.87209779
Si       1.00647364       1.63298245       0.46681967
Si      -1.84067614       3.55306536       5.76190428
Si       4.62593840       2.33178832       4.08220730
Si       6.06948073       1.60485775       2.88519096
Si      -0.45843590       2.47156967       2.55179476
Si      -1.90197823       3.19850024       3.74881111
Si       1.08074583       3.30305619       1.53532825
Si      -0.37092459       2.49656434       4.86510591
Si       3.08675668       1.50030180       5.09867382
Si       4.53842709       2.30679365       1.76889616
Si       2.75516280       2.69713386       0.60849150
Si       1.41233970       2.10622413       6.02551057
14
Lattice="8.678144622949395 -1.2223919694821943 0.8954669561010588 -1.525229699557786 5.87219752887003 -0.5007420005934525 -3.067243109128805 0.19703224410817308 6.286845964177606" Properties=species:S:1:pos:R:3 unique_starting_index=20 config_type=initial n_minim_iter=18 stress="0.048786825217753224 -0.0036599137965802465 -0.001085337219219467 -0.0036599137965802465 -0.024736731534051506 -0.021105665816235117 -0.001085337219219467 -0.021105665816235117 0.009226764460261978" pbc="T T T"
Si       3.09159723       3.20766374       6.18342396
Si       5.95596779       1.26236943       0.85202104
Si       0.99407459       1.63917407       0.49814696
Si      -1.87029597       3.58446837       5.82954988
Si       4.56877410       2.34225326       4.07411613
Si       6.02520106       1.63555464       2.87157865
Si      -0.48310229       2.50458454       2.60745479
Si      -1.93952924       3.21128316       3.80999227
Si       1.04545787       3.31383276       1.56533464
Si      -0.41123231       2.52837525       4.94790263
Si       3.04021395       1.53300504       5.11623628
Si       4.49690412       2.31846256       1.73366829
Si       2.73787075       2.67715131       0.63600549
Si       1.34780107       2.16968649       6.04556543
14
Lattice="8.637679704302542 -1.2444754440074177 0.8513705012344629 -1.53485651828814 5.888319421990205 -0.4573269749736249 -3.0821769609749357 0.24113124802615102 6.3066729327860855" Properties=species:S:1:pos:R:3 unique_starting_index=20 config_type=initial n_minim_iter=19 stress="0.021046838320397016 -0.01030825212066387 -0.015188364179416738 -0.01030825212066387 -0.022609360685659326 -0.009016717211714981 -0.015188364179416738 -0.009016717211714981 0.006150471274271837" pbc="T T T"
Si       3.04341955       3.24863364       6.17831843
Si       5.92718699       1.25850703       0.82833218
Si       0.97722668       1.63634159       0.52239803
Si      -1.90654077       3.62646820       5.87238428
Si       4.52157848       2.33964014       4.05637574
Si       5.98558494       1.65484448       2.85045784
Si      -0.50093226       2.54533509       2.64434071
Si      -1.96493871       3.23013075       3.85025862
Si       1.02220908       3.32908801       1.57838704
Si      -0.44380786       2.56695429       4.99520629
Si       2.99843715       1.55588722       5.12232942
Si       4.46445409       2.31802094       1.70551016
Si       2.71300833       2.65573126       0.66728240
Si       1.30763789       2.22924397       6.03343406
14
Lattice="8.645560281284409 -1.268773149719775 0.862796148540337 -1.5514981280954319 5.932792514806747 -0.4403304856901488 -3.068284301534044 0.2640120232075096 6.276762412169816" Properties=species:S:1:pos:R:3 unique_starting_index=20 config_type=initial n_minim_iter=20 stress="0.0038205260545406093 -0.011128249010304 -0.0017209191852344521 -0.011128249010304 0.008129648800400137 0.009699194045855635 -0.0017209191852344521 0.009699194045855635 0.0036618221533792493" pbc="T T T"
Si       3.04830254       3.28346020       6.16526240
Si       5.93414620       1.26464770       0.83861803
Si       0.97747531       1.64457119       0.53396568
Si      -1.90836835       3.66338369       5.86061005
Si       4.52746799       2.35686215       4.05028726
Si       5.98736220       1.65876153       2.85855489
Si      -0.50169014       2.57116924       2.64894081
Si      -1.96158435       3.26926986       3.84067319
Si       1.01623050       3.35504957       1.59104922
Si      -0.45253457       2.59443126       4.98458336
Si       3.00954735       1.57298182       5.10817885
Si       4.47831242       2.33360012       1.71464471
Si       2.70385104       2.66762356       0.68744793
Si       1.32192682       2.26040783       6.01178015
14
Lattice="8.627874974957635 -1.2608005970259624 0.8541528141750906 -1.5482014218132922 5.893201890182164 -0.43872395201487646 -3.0666751004795745 0.26234166845705875 6.257363190131236" Properties=species:S:1:pos:R:3 unique_starting_index=20 config_type=initial n_minim_iter=21 stress="-0.008248082585640623 -0.00014884424324898739 0.0018122437584690088 -0.00014884424324898739 -0.0062039253861305215 0.013374256774312258 0.0018122437584690088 0.013374256774312258 0.01838694991568668" pbc="T T T"
Si       3.04076953       3.28416287       6.12980948
Si       5.92866783       1.26651483       0.82476654
Si       0.97222892       1.61058009       0.54298257
Si      -1.91566938       3.62822813       5.84802551
Si       4.51543776       2.34009665       4.01280331
Si       5.98284243       1.63136480       2.83103117
Si      -0.50243931       2.55464632       2.65998874
Si      -1.96984398       3.26337816       3.84176088
Si       1.02316002       3.33241326       1.59706651
Si      -0.46631470       2.56003043       4.97314311
Si       2.98983843       1.56232971       5.07572554
Si       4.47931315       2.33471253       1.69964894
Si       2.69702269       2.64742524       0.70290243
Si       1.31597577       2.24731772       5.96988962
