22
Lattice="5.195031030867171 -1.0931749000712514 0.7160510232868762 1.4172263426901122 5.133348013886445 1.1798865360474706 2.4950990712292707 1.711940505594236 17.32813303665033" Properties=species:S:1:pos:R:3 unique_starting_index=40 config_type=initial n_minim_iter=1 energy=-3602.64459731212 free_energy=-3602.64459731212 pbc="T T T"
Si       8.68066499       2.02897188      16.25161762
Si       2.59011814       0.98905089       5.16626698
Si       5.12835354       1.03365910       8.09760338
Si       5.44728176       3.38993424      15.17710195
Si       4.83111921       2.91589320      17.04180010
Si       4.55109136       6.17150226       9.58805992
Si       5.23343638       1.43752656       2.91300970
Si       4.86216326       3.36049079      11.72871510
Si       3.72607426       1.78071191       1.05359993
Si       5.83289445       4.63495247      16.73528947
Si       4.06676481       1.53617599      11.95741857
Si       4.43798841       2.66837633      13.58156556
Si       1.77192746       1.67956631       1.60376856
Si       1.08180413       1.13052500       8.68797490
Si       4.73892472       1.54498367      15.54938571
Si       5.71536713       4.76683898      10.48792909
Si       2.80698037       2.94706124       5.56415134
Si       3.30547390       6.86652102       8.10547711
Si       4.29646450       1.93003670       4.64848986
Si       4.71170550       1.46289978      10.03753699
Si       6.77061548       2.71151653      16.52976022
Si       3.88031244       1.58852710       6.59494037
22
Lattice="5.195120972567745 -1.0932165212829488 0.7161030785792474 1.4172536175328503 5.13353611609984 1.1799412331070882 2.4952465532059085 1.712034618156865 17.328680329343516" Properties=species:S:1:pos:R:3 unique_starting_index=40 config_type=initial n_minim_iter=2 stress="0.00039836681582616106 -4.345054545894443e-05 2.5386661682321098e-05 -4.345054545894443e-05 0.0003768733050820507 -4.443937986274711e-05 2.5386661682321098e-05 -4.443937986274711e-05 0.00033473052055810204" pbc="T T T"
Si       8.68096758       2.02908587      16.25223813
Si       2.59029965       0.98916768       5.16657942
Si       5.12842551       1.03373449       8.09787908
Si       5.44753448       3.39000201      15.17763121
Si       4.83125993       2.91600705      17.04228910
Si       4.55121607       6.17178367       9.58848599
Si       5.23348357       1.43762825       2.91313108
Si       4.86223373       3.36065005      11.72908602
Si       3.72618634       1.78077795       1.05358690
Si       5.83313806       4.63514459      16.73585719
Si       4.06689956       1.53630043      11.95774637
Si       4.43816579       2.66850641      13.58205116
Si       1.77201438       1.67962453       1.60378463
Si       1.08194539       1.13053555       8.68831142
Si       4.73910790       1.54508567      15.54994246
Si       5.71550341       4.76695998      10.48825738
Si       2.80705950       2.94712974       5.56438386
Si       3.30560533       6.86677548       8.10562636
Si       4.29647089       1.93005238       4.64873476
Si       4.71184465       1.46299521      10.03792331
Si       6.77082208       2.71167133      16.53029494
Si       3.88026410       1.58859126       6.59498833
22
Lattice="5.195014712475867 -1.0931849374806302 0.7160866155727696 1.4172366352524648 5.133459930063245 1.1799371138174826 2.495190572061256 1.7120596795098515 17.328431586165998" Properties=species:S:1:pos:R:3 unique_starting_index=40 config_type=initial n_minim_iter=3 stress="-6.165173141927635e-05 -5.679272683035606e-05 2.192222142288362e-06 -5.679272683035606e-05 -3.7260897188646144e-06 -6.5643706225208005e-06 2.192222142288362e-06 -6.5643706225208005e-06 -4.769665520907352e-05" pbc="T T T"
Si       8.68080025       2.02911989      16.25201327
Si       2.59026125       0.98918023       5.16652479
Si       5.12831246       1.03375313       8.09776342
Si       5.44743565       3.38998740      15.17742035
Si       4.83115721       2.91601670      17.04203736
Si       4.55113378       6.17172834       9.58837488
Si       5.23337288       1.43763277       2.91308869
Si       4.86212359       3.36064166      11.72891855
Si       3.72612201       1.78076049       1.05355997
Si       5.83302992       4.63512532      16.73562470
Si       4.06681442       1.53632717      11.95756487
Si       4.43807988       2.66851169      13.58186314
Si       1.77198971       1.67960565       1.60375622
Si       1.08192881       1.13053836       8.68819237
Si       4.73900939       1.54511653      15.54972622
Si       5.71539348       4.76691640      10.48810805
Si       2.80700590       2.94709916       5.56431469
Si       3.30555229       6.86669248       8.10550728
Si       4.29637401       1.93003424       4.64867934
Si       4.71174840       1.46301180      10.03778445
Si       6.77068387       2.71169258      16.53005617
Si       3.88016712       1.58858956       6.59487409
22
Lattice="5.195058746239861 -1.0926304888222653 0.7160610883076657 1.4177585215935682 5.133389268343531 1.1800628075113704 2.495345184894897 1.7125568100238144 17.32893007579078" Properties=species:S:1:pos:R:3 unique_starting_index=40 config_type=initial n_minim_iter=4 stress="6.496510364283266e-05 0.00035166657916855355 -0.00022297858406516438 0.00035166657916855355 3.0346124242454836e-06 0.0001548541237768005 -0.00022297858406516438 0.0001548541237768005 -2.139516093742726e-06" pbc="T T T"
Si       8.68123240       2.03021846      16.25255956
Si       2.59042351       0.98945132       5.16676364
Si       5.12847913       1.03432339       8.09804859
Si       5.44794660       3.39055400      15.17786361
Si       4.83151175       2.91671419      17.04251397
Si       4.55179704       6.17216849       9.58886367
Si       5.23357859       1.43819753       2.91315774
Si       4.86238680       3.36126135      11.72925380
Si       3.72644879       1.78104287       1.05343476
Si       5.83362219       4.63573369      16.73615714
Si       4.06698966       1.53694910      11.95785085
Si       4.43844547       2.66907958      13.58229011
Si       1.77225642       1.67973907       1.60373137
Si       1.08202941       1.13075896       8.68840570
Si       4.73923748       1.54576453      15.55024499
Si       5.71598833       4.76740837      10.48839807
Si       2.80727960       2.94741276       5.56452619
Si       3.30617872       6.86682975       8.10575819
Si       4.29660031       1.93036799       4.64883817
Si       4.71197857       1.46356943      10.03808478
Si       6.77112144       2.71255685      16.53055486
Si       3.88036925       1.58892570       6.59511005
22
Lattice="5.195191179865136 -1.0925184829652785 0.7164250513479419 1.417926862574858 5.133109853390383 1.1800797092702007 2.496462774169512 1.712119138099514 17.329690663263033" Properties=species:S:1:pos:R:3 unique_starting_index=40 config_type=initial n_minim_iter=5 stress="0.00023111939301591436 5.09607023717198e-06 0.00013198719943589398 5.09607023717198e-06 -0.00042512966327736186 -1.5313675624282178e-05 0.00013198719943589398 -1.5313675624282178e-05 0.00016442826751154703" pbc="T T T"
Si       8.68249911       2.02995598      16.25376924
Si       2.59082330       0.98927557       5.16720106
Si       5.12901438       1.03413289       8.09871501
Si       5.44911832       3.38998936      15.17865312
Si       4.83271579       2.91630768      17.04334971
Si       4.55253123       6.17183091       9.58951824
Si       5.23379037       1.43822912       2.91352951
Si       4.86304181       3.36099572      11.72987624
Si       3.72667994       1.78095423       1.05343341
Si       5.83488673       4.63511175      16.73703638
Si       4.06777258       1.53676726      11.95844637
Si       4.43945502       2.66870127      13.58302718
Si       1.77249412       1.67965436       1.60373772
Si       1.08259689       1.13051319       8.68871941
Si       4.74032467       1.54534264      15.55118762
Si       5.71684865       4.76694740      10.48895022
Si       2.80762140       2.94727525       5.56485398
Si       3.30671084       6.86629204       8.10600261
Si       4.29691055       1.93011248       4.64924534
Si       4.71269807       1.46330141      10.03873040
Si       6.77238159       2.71216206      16.53156485
Si       3.88083067       1.58862165       6.59562863
22
Lattice="5.1950168112867745 -1.0925557775927128 0.7164514464647023 1.4179143139291945 5.133390995390429 1.1800309769608692 2.496476552385807 1.7120863182512094 17.329482590014972" Properties=species:S:1:pos:R:3 unique_starting_index=40 config_type=initial n_minim_iter=6 stress="-0.00011695096037596743 9.411157706495655e-05 0.00014681449655597895 9.411157706495655e-05 0.00013800088166933142 -6.750154262648354e-05 0.00014681449655597895 -6.750154262648354e-05 -3.332553982428876e-05" pbc="T T T"
Si       8.68235778       2.03003962      16.25366333
Si       2.59078209       0.98927336       5.16719693
Si       5.12884841       1.03414340       8.09866604
Si       5.44907566       3.39001540      15.17845418
Si       4.83268410       2.91638053      17.04313356
Si       4.55244741       6.17219934       9.58945025
Si       5.23359885       1.43836634       2.91349551
Si       4.86285891       3.36118737      11.72971772
Si       3.72660715       1.78104920       1.05330932
Si       5.83484656       4.63522734      16.73682125
Si       4.06767788       1.53682152      11.95829018
Si       4.43943118       2.66876399      13.58287004
Si       1.77249123       1.67975862       1.60365406
Si       1.08261239       1.13050499       8.68858244
Si       4.74027817       1.54527962      15.55107091
Si       5.71677123       4.76712745      10.48877503
Si       2.80752796       2.94745927       5.56479067
Si       3.30662170       6.86659911       8.10582519
Si       4.29675847       1.93014456       4.64920795
Si       4.71260069       1.46330554      10.03863037
Si       6.77230283       2.71222396      16.53139909
Si       3.88071977       1.58861074       6.59560013
22
Lattice="5.195083603188136 -1.0926707370284368 0.7162242510096078 1.4177569261524696 5.133354978405789 1.1800515468817783 2.4957570944067857 1.712273745754471 17.329448337140104" Properties=species:S:1:pos:R:3 unique_starting_index=40 config_type=initial n_minim_iter=7 stress="4.813498749669088e-05 -0.00010884229960595913 -0.00013439222836291023 -0.00010884229960595913 2.9462019491206714e-05 7.369016701550275e-06 -0.00013439222836291023 7.369016701550275e-06 -6.0552122708653764e-05" pbc="T T T"
Si       8.68180696       2.03010675      16.25341682
Si       2.59058665       0.98925319       5.16714790
Si       5.12852245       1.03413285       8.09849748
Si       5.44846517       3.39002910      15.17830609
Si       4.83199963       2.91650943      17.04300535
Si       4.55193735       6.17227776       9.58942667
Si       5.23349120       1.43831358       2.91329348
Si       4.86227517       3.36129279      11.72959228
Si       3.72660485       1.78095066       1.05310900
Si       5.83415784       4.63529826      16.73666966
Si       4.06717987       1.53693249      11.95817798
Si       4.43890461       2.66884449      13.58274952
Si       1.77242397       1.67975630       1.60357750
Si       1.08224397       1.13059535       8.68855327
Si       4.73969160       1.54534222      15.55098188
Si       5.71632572       4.76710503      10.48861017
Si       2.80723758       2.94747917       5.56475492
Si       3.30612216       6.86659145       8.10580052
Si       4.29654329       1.93005049       4.64908723
Si       4.71221380       1.46330491      10.03848555
Si       6.77168931       2.71229290      16.53121070
Si       3.88043000       1.58856547       6.59551530
22
Lattice="5.194984109294888 -1.0923397980692355 0.7163607354651879 1.4180081109453433 5.133203183947277 1.1803978978547551 2.4962170059636453 1.7130282370119094 17.33101087605357" Properties=species:S:1:pos:R:3 unique_starting_index=40 config_type=initial n_minim_iter=8 stress="-0.0002965706564298028 -5.883559203975682e-05 1.5484727387385844e-05 -5.883559203975682e-05 -7.870971294496993e-06 0.00023917297492917575 1.5484727387385844e-05 0.00023917297492917575 0.0003844552499204464" pbc="T T T"
Si       8.68240599       2.03128370      16.25515210
Si       2.59070426       0.98941142       5.16774436
Si       5.12856084       1.03469808       8.09930069
Si       5.44896878       3.39051019      15.17979569
Si       4.83257780       2.91725441      17.04457467
Si       4.55228176       6.17287283       9.59073436
Si       5.23354356       1.43873792       2.91363841
Si       4.86232428       3.36214940      11.73082255
Si       3.72685248       1.78101353       1.05315661
Si       5.83484422       4.63604415      16.73822193
Si       4.06737195       1.53768223      11.95938787
Si       4.43944904       2.66947531      13.58397700
Si       1.77251985       1.67996707       1.60373939
Si       1.08251630       1.13090798       8.68927048
Si       4.74016802       1.54597532      15.55261266
Si       5.71682238       4.76751139      10.48972111
Si       2.80742587       2.94764825       5.56552560
Si       3.30645606       6.86664440       8.10687110
Si       4.29655388       1.93016722       4.64974345
Si       4.71244467       1.46373904      10.03948692
Si       6.77229280       2.71314904      16.53288110
Si       3.88043058       1.58885276       6.59633841
22
Lattice="5.195258381030196 -1.0921261794016397 0.7164138007874573 1.41830607701479 5.133073011696402 1.1801991007593793 2.496599578409016 1.7125326319353686 17.33022923037291" Properties=species:S:1:pos:R:3 unique_starting_index=40 config_type=initial n_minim_iter=9 stress="5.199541226527926e-05 1.1972137148228423e-05 1.685636909676584e-05 1.1972137148228423e-05 -3.0735540080867496e-05 1.6049636943367213e-07 1.685636909676584e-05 1.6049636943367213e-07 -9.22746187614137e-05" pbc="T T T"
Si       8.68327940       2.03116210      16.25451633
Si       2.59092810       0.98924862       5.16755437
Si       5.12891276       1.03464126       8.09895159
Si       5.44962357       3.39002828      15.17906400
Si       4.83321256       2.91679550      17.04376252
Si       4.55282505       6.17274380       9.59025260
Si       5.23393664       1.43888452       2.91347255
Si       4.86266776       3.36205527      11.73026248
Si       3.72725888       1.78103492       1.05298501
Si       5.83561593       4.63561393      16.73729304
Si       4.06772946       1.53750567      11.95889440
Si       4.44004275       2.66914276      13.58327903
Si       1.77270714       1.68002841       1.60358226
Si       1.08271852       1.13062173       8.68882849
Si       4.74071087       1.54553724      15.55203437
Si       5.71749873       4.76724226      10.48911742
Si       2.80773874       2.94746165       5.56528963
Si       3.30692438       6.86627221       8.10635999
Si       4.29685753       1.93003166       4.64957856
Si       4.71286655       1.46348603      10.03905245
Si       6.77305347       2.71281006      16.53215556
Si       3.88067636       1.58870586       6.59609519
22
Lattice="5.195204458893083 -1.091935639729587 0.7164472429785008 1.418496629548016 5.133006583422979 1.1800295604956548 2.4964722177465277 1.7118467298313307 17.33118303652805" Properties=species:S:1:pos:R:3 unique_starting_index=40 config_type=initial n_minim_iter=10 stress="-0.00012986829865584658 4.587927396981655e-05 -0.00010968974812733909 4.587927396981655e-05 -7.878702965753882e-05 -0.00020829623540754034 -0.00010968974812733909 -0.00020829623540754034 0.0001653860478072626" pbc="T T T"
Si       8.68331845       2.03090137      16.25533421
Si       2.59084210       0.98898082       5.16784662
Si       5.12879153       1.03449704       8.09934724
Si       5.44978472       3.38938311      15.17976028
Si       4.83341002       2.91620652      17.04469901
Si       4.55292640       6.17266912       9.59066898
Si       5.23399318       1.43905936       2.91346177
Si       4.86228965       3.36191300      11.73079473
Si       3.72744101       1.78102132       1.05283783
Si       5.83569227       4.63495404      16.73776079
Si       4.06760393       1.53733789      11.95949773
Si       4.44018128       2.66871449      13.58388977
Si       1.77276662       1.68019922       1.60349887
Si       1.08257124       1.13025341       8.68924164
Si       4.74064587       1.54488072      15.55299288
Si       5.71760938       4.76692856      10.48935945
Si       2.80774143       2.94718067       5.56559206
Si       3.30698938       6.86588502       8.10657589
Si       4.29678160       1.92978723       4.64983230
Si       4.71276801       1.46308304      10.03960079
Si       6.77305268       2.71230070      16.53293659
Si       3.88043680       1.58848644       6.59641673
22
Lattice="5.195438693419447 -1.0918844903820975 0.7165434843041334 1.4186278891783246 5.133160073027231 1.1803004597902251 2.497153280926246 1.7127543480362075 17.330894965675046" Properties=species:S:1:pos:R:3 unique_starting_index=40 config_type=initial n_minim_iter=11 stress="3.34178010240761e-05 -1.4855605453020974e-06 5.253303325222177e-05 -1.4855605453020974e-06 1.2982291946684672e-05 9.36374150485933e-05 5.253303325222177e-05 9.36374150485933e-05 -6.287076496853174e-05" pbc="T T T"
Si       8.68433136       2.03186350      16.25529420
Si       2.59107577       0.98919236       5.16786803
Si       5.12923170       1.03495990       8.09936541
Si       5.45063903       3.39012775      15.17969320
Si       4.83434151       2.91714166      17.04459919
Si       4.55346981       6.17341905       9.59096338
Si       5.23433993       1.43933382       2.91359568
Si       4.86267068       3.36273065      11.73082240
Si       3.72771848       1.78107781       1.05299790
Si       5.83655840       4.63583812      16.73756138
Si       4.06814726       1.53810629      11.95936185
Si       4.44094988       2.66949579      13.58379591
Si       1.77292164       1.68044134       1.60354387
Si       1.08283684       1.13071339       8.68907203
Si       4.74138848       1.54566476      15.55288631
Si       5.71822172       4.76755740      10.48942293
Si       2.80801468       2.94745941       5.56575628
Si       3.30737155       6.86638542       8.10685360
Si       4.29707175       1.92995926       4.65001208
Si       4.71327343       1.46356731      10.03960765
Si       6.77395563       2.71319433      16.53283173
Si       3.88070167       1.58881988       6.59647317
22
Lattice="5.195581713343126 -1.0918037328876644 0.7165736737172235 1.4187693733161904 5.1331893887239195 1.180230493695567 2.497246728239004 1.712491971571907 17.331238435634706" Properties=species:S:1:pos:R:3 unique_starting_index=40 config_type=initial n_minim_iter=12 stress="6.024729970459614e-06 7.610973936364145e-06 -5.4148028770361585e-06 7.610973936364145e-06 -8.183778779991524e-06 -1.2343129638051223e-05 -5.4148028770361585e-06 -1.2343129638051223e-05 -4.1701994411167325e-06" pbc="T T T"
Si       8.68503297       2.03179557      16.25561135
Si       2.59101913       0.98898010       5.16802392
Si       5.12925504       1.03496371       8.09952209
Si       5.45103961       3.38965072      15.17985099
Si       4.83482232       2.91689446      17.04496844
Si       4.55378710       6.17366152       9.59130196
Si       5.23460271       1.43957379       2.91358203
Si       4.86232794       3.36309434      11.73097345
Si       3.72804708       1.78103076       1.05304822
Si       5.83693776       4.63551006      16.73733777
Si       4.06820482       1.53820990      11.95948374
Si       4.44146954       2.66945480      13.58410558
Si       1.77309281       1.68079557       1.60341437
Si       1.08265018       1.13058576       8.68921414
Si       4.74157897       1.54556349      15.55336412
Si       5.71838947       4.76748678      10.48931852
Si       2.80797372       2.94726875       5.56595027
Si       3.30744581       6.86624096       8.10699878
Si       4.29712770       1.92963909       4.65020894
Si       4.71335460       1.46330270      10.03991411
Si       6.77447227       2.71292824      16.53305204
Si       3.88060737       1.58858478       6.59668476
22
Lattice="5.195463922984868 -1.091829512334999 0.716605821131166 1.418720411399616 5.133244269571557 1.1803045287389533 2.4973024934273513 1.7126782978812363 17.331424188504553" Properties=species:S:1:pos:R:3 unique_starting_index=40 config_type=initial n_minim_iter=13 stress="-1.2572809029839235e-05 8.751109973413988e-06 -5.6697418347490465e-06 8.751109973413988e-06 1.1944773351162081e-05 -3.1216389539268604e-06 -5.6697418347490465e-06 -3.1216389539268604e-06 -1.0160965611193817e-05" pbc="T T T"
Si       8.68511497       2.03199000      16.25590663
Si       2.59085137       0.98898731       5.16817337
Si       5.12910096       1.03511823       8.09961832
Si       5.45135038       3.38971886      15.17996362
Si       4.83493637       2.91700373      17.04513811
Si       4.55368269       6.17396938       9.59166866
Si       5.23456086       1.43975028       2.91370604
Si       4.86185099       3.36357003      11.73107373
Si       3.72804688       1.78103337       1.05326832
Si       5.83706502       4.63565722      16.73725890
Si       4.06815348       1.53860913      11.95964055
Si       4.44164721       2.66963122      13.58420065
Si       1.77319517       1.68111998       1.60339004
Si       1.08251534       1.13069656       8.68937380
Si       4.74158158       1.54561032      15.55363918
Si       5.71805987       4.76758658      10.48931393
Si       2.80772818       2.94719498       5.56604626
Si       3.30731118       6.86630508       8.10726184
Si       4.29695123       1.92941081       4.65037097
Si       4.71324790       1.46327321      10.04006685
Si       6.77469413       2.71297542      16.53318659
Si       3.88047568       1.58839565       6.59686189
22
Lattice="5.1954656455267045 -1.0919018069165816 0.7166725726517283 1.4186355118883585 5.1331672482516595 1.1803980207177855 2.4974881304401153 1.7128071101356284 17.33172254350047" Properties=species:S:1:pos:R:3 unique_starting_index=40 config_type=initial n_minim_iter=14 stress="9.624237839467775e-07 -1.0668003098916223e-05 2.9558855342699216e-06 -1.0668003098916223e-05 -1.4785700096936668e-05 3.622983214893136e-06 2.9558855342699216e-06 3.622983214893136e-06 5.459865200186442e-06" pbc="T T T"
Si       8.68546936       2.03202326      16.25632273
Si       2.59070264       0.98894478       5.16837252
Si       5.12921108       1.03516315       8.09986397
Si       5.45172027       3.38960930      15.18020395
Si       4.83533235       2.91707297      17.04544617
Si       4.55350037       6.17404503       9.59208820
Si       5.23462016       1.43980792       2.91392867
Si       4.86161346       3.36399061      11.73122873
Si       3.72801495       1.78099333       1.05342246
Si       5.83736515       4.63558167      16.73748898
Si       4.06818564       1.53875890      11.95992255
Si       4.44189891       2.66969432      13.58441421
Si       1.77333303       1.68135340       1.60340531
Si       1.08242768       1.13079426       8.68961945
Si       4.74179279       1.54560452      15.55395253
Si       5.71781564       4.76751617      10.48944036
Si       2.80758973       2.94698783       5.56615808
Si       3.30723246       6.86618923       8.10759739
Si       4.29688652       1.92914344       4.65055315
Si       4.71328344       1.46315974      10.04023809
Si       6.77498010       2.71292757      16.53354196
Si       3.88044180       1.58817427       6.59696761
22
Lattice="5.1954586397300275 -1.0919026662032913 0.7166978134846899 1.4186734639169185 5.133345328212648 1.1804161089248697 2.4975967675519652 1.7129224031163963 17.33169473477335" Properties=species:S:1:pos:R:3 unique_starting_index=40 config_type=initial n_minim_iter=15 stress="1.0902205333890178e-05 1.0937115665585954e-05 8.564886473980924e-07 1.0937115665585954e-05 2.275310798840536e-05 5.008958012696394e-06 8.564886473980924e-07 5.008958012696394e-06 4.5893139130819544e-07" pbc="T T T"
Si       8.68587679       2.03221713      16.25636768
Si       2.59044092       0.98887250       5.16843635
Si       5.12922131       1.03534560       8.09988997
Si       5.45202507       3.38960191      15.18010130
Si       4.83565954       2.91717375      17.04543553
Si       4.55338740       6.17442244       9.59219527
Si       5.23475712       1.44002148       2.91409406
Si       4.86129319       3.36435836      11.73116908
Si       3.72803310       1.78117582       1.05344822
Si       5.83780125       4.63575383      16.73747984
Si       4.06826118       1.53910398      11.95989672
Si       4.44212103       2.66989928      13.58435656
Si       1.77350211       1.68170374       1.60335061
Si       1.08225674       1.13087772       8.68978546
Si       4.74199367       1.54568828      15.55390790
Si       5.71764710       4.76775803      10.48927062
Si       2.80756767       2.94692257       5.56610783
Si       3.30730325       6.86638907       8.10773260
Si       4.29686976       1.92906704       4.65056256
Si       4.71328433       1.46314033      10.04019410
Si       6.77522041       2.71304720      16.53361095
Si       3.88043436       1.58806477       6.59691760
22
Lattice="5.195438726323562 -1.0920257407799858 0.7167363291639784 1.4185483254166933 5.133287921009736 1.180378094834846 2.497609121723391 1.7126842284613575 17.33180991606379" Properties=species:S:1:pos:R:3 unique_starting_index=40 config_type=initial n_minim_iter=16 stress="1.5944714964787686e-05 1.0991267553854689e-05 5.616214122179639e-06 1.0991267553854689e-05 1.078935001609139e-08 1.1713244853530461e-05 5.616214122179639e-06 1.1713244853530461e-05 5.836242071282822e-06" pbc="T T T"
Si       8.68600387       2.03191961      16.25652217
Si       2.59011281       0.98858083       5.16851895
Si       5.12897235       1.03522609       8.09994172
Si       5.45232371       3.38916936      15.18020688
Si       4.83576985       2.91682887      17.04554180
Si       4.55312482       6.17434258       9.59219949
Si       5.23489586       1.43998072       2.91429793
Si       4.86082106       3.36441085      11.73114314
Si       3.72808435       1.78128147       1.05344457
Si       5.83811945       4.63526723      16.73765635
Si       4.06818106       1.53892412      11.95987399
Si       4.44217972       2.66975966      13.58445429
Si       1.77356806       1.68195893       1.60325772
Si       1.08189178       1.13080280       8.69003717
Si       4.74217700       1.54535092      15.55395265
Si       5.71731046       4.76760790      10.48908579
Si       2.80753099       2.94654145       5.56606963
Si       3.30709020       6.86615859       8.10790401
Si       4.29663271       1.92871672       4.65056550
Si       4.71314668       1.46280453      10.04026944
Si       6.77541949       2.71268323      16.53382135
Si       3.88028852       1.58767665       6.59689903
22
Lattice="5.195392178649781 -1.0923001064741957 0.7167468211361302 1.4182896899252206 5.133285621237963 1.1802092542226787 2.497369474067085 1.7120178646749007 17.33196701706335" Properties=species:S:1:pos:R:3 unique_starting_index=40 config_type=initial n_minim_iter=17 stress="9.41359091784838e-06 6.690676329107806e-07 5.652685449670117e-06 6.690676329107806e-07 1.188118620538855e-05 -3.031252382007758e-06 5.652685449670117e-06 -3.031252382007758e-06 9.918983948840327e-06" pbc="T T T"
Si       8.68592508       2.03101505      16.25658546
Si       2.58976558       0.98813020       5.16857856
Si       5.12875229       1.03472397       8.09997441
Si       5.45225218       3.38844173      15.18036401
Si       4.83553802       2.91603113      17.04560723
Si       4.55256024       6.17406229       9.59202315
Si       5.23493784       1.43975847       2.91441138
Si       4.86014294       3.36402457      11.73110759
Si       3.72814983       1.78133038       1.05339745
Si       5.83808657       4.63439525      16.73777075
Si       4.06791810       1.53840640      11.95991762
Si       4.44194526       2.66924624      13.58448391
Si       1.77354624       1.68211634       1.60309017
Si       1.08146072       1.13064505       8.69010747
Si       4.74204982       1.54462042      15.55402439
Si       5.71665009       4.76706787      10.48883351
Si       2.80735323       2.94612161       5.56601959
Si       3.30648227       6.86584691       8.10793114
Si       4.29621591       1.92818971       4.65046665
Si       4.71283353       1.46226858      10.04038292
Si       6.77531491       2.71186263      16.53401749
Si       3.87996789       1.58710676       6.59680267
22
Lattice="5.195338167670707 -1.0925578492460533 0.7167065475832824 1.4180123592769167 5.13319998139255 1.1800695639582717 2.4969931267307848 1.7114629191871955 17.3320712206652" Properties=species:S:1:pos:R:3 unique_starting_index=40 config_type=initial n_minim_iter=18 stress="7.444504173994558e-06 4.84881397222665e-06 1.6074831683399715e-06 4.84881397222665e-06 -7.509206711440048e-06 -8.344320751911703e-07 1.6074831683399715e-06 -8.344320751911703e-07 7.378088793733198e-06" pbc="T T T"
Si       8.68572197       2.03012150      16.25648856
Si       2.58929444       0.98765446       5.16863168
Si       5.12826897       1.03430943       8.09983275
Si       5.45210067       3.38779502      15.18048991
Si       4.83534530       2.91536744      17.04569460
Si       4.55192855       6.17372185       9.59182160
Si       5.23498446       1.43951834       2.91449872
Si       4.85936412       3.36366641      11.73105594
Si       3.72826174       1.78135547       1.05333496
Si       5.83795601       4.63363186      16.73786776
Si       4.06751081       1.53788458      11.96001763
Si       4.44160784       2.66881983      13.58447746
Si       1.77356042       1.68224185       1.60285638
Si       1.08111284       1.13056063       8.69016082
Si       4.74176447       1.54399403      15.55401750
Si       5.71574369       4.76649557      10.48853946
Si       2.80708350       2.94570051       5.56606403
Si       3.30582373       6.86550983       8.10782484
Si       4.29572097       1.92760644       4.65026989
Si       4.71243274       1.46181805      10.04041187
Si       6.77503737       2.71114643      16.53415716
Si       3.87960249       1.58653570       6.59675607
22
Lattice="5.1952363392055085 -1.092902762081642 0.7166597545022679 1.4176459726852653 5.133165901428373 1.1799243958428551 2.4965547224942526 1.710901702713047 17.332083282310546" Properties=species:S:1:pos:R:3 unique_starting_index=40 config_type=initial n_minim_iter=19 stress="-3.827625813653074e-06 -9.544502286843897e-07 -3.1820784821630433e-07 -9.544502286843897e-07 -1.887297557991557e-05 3.010849605693052e-06 -3.1820784821630433e-07 3.010849605693052e-06 4.9579518685663e-06" pbc="T T T"
Si       8.68528682       2.02913454      16.25628660
Si       2.58868564       0.98713970       5.16867794
Si       5.12771803       1.03375932       8.09978244
Si       5.45182189       3.38711774      15.18042331
Si       4.83507491       2.91465255      17.04567981
Si       4.55107709       6.17338144       9.59160425
Si       5.23497766       1.43921353       2.91456590
Si       4.85845905       3.36323728      11.73096374
Si       3.72838860       1.78135125       1.05333254
Si       5.83773371       4.63302415      16.73789758
Si       4.06700669       1.53730159      11.96010909
Si       4.44121489       2.66841534      13.58448647
Si       1.77358524       1.68236525       1.60260222
Si       1.08063229       1.13053519       8.69009165
Si       4.74141345       1.54331288      15.55394107
Si       5.71475251       4.76602845      10.48818639
Si       2.80670517       2.94526047       5.56615818
Si       3.30504580       6.86525441       8.10752312
Si       4.29508786       1.92694351       4.65005154
Si       4.71193902       1.46126882      10.04029097
Si       6.77477056       2.71033374      16.53421738
Si       3.87912393       1.58596753       6.59659374
22
Lattice="5.195162927716725 -1.0931668791527323 0.716635938807482 1.4173986657939552 5.133257761457704 1.1797808874901687 2.496285054342005 1.710448053642498 17.331883594674824" Properties=species:S:1:pos:R:3 unique_starting_index=40 config_type=initial n_minim_iter=20 stress="-1.034414947517677e-05 -1.0010708180609e-05 1.7093795392885768e-06 -1.0010708180609e-05 -6.259296096797499e-06 -4.274612922991908e-06 1.7093795392885768e-06 -4.274612922991908e-06 -1.3605035386775508e-06" pbc="T T T"
Si       8.68501363       2.02838424      16.25599813
Si       2.58819089       0.98677443       5.16859524
Si       5.12736562       1.03339104       8.09958828
Si       5.45171714       3.38660539      15.18029765
Si       4.83497148       2.91419713      17.04530427
Si       4.55038316       6.17322742       9.59133556
Si       5.23499242       1.43899373       2.91455231
Si       4.85788902       3.36289952      11.73075400
Si       3.72851932       1.78135884       1.05334783
Si       5.83755532       4.63259807      16.73769613
Si       4.06670080       1.53686882      11.96001456
Si       4.44096784       2.66809650      13.58435218
Si       1.77364237       1.68247240       1.60246132
Si       1.08032774       1.13042900       8.68996687
Si       4.74122128       1.54286628      15.55374034
Si       5.71417860       4.76578688      10.48786257
Si       2.80643323       2.94502689       5.56610668
Si       3.30445654       6.86519643       8.10716192
Si       4.29461091       1.92650449       4.64988026
Si       4.71158490       1.46084695      10.04012226
Si       6.77458628       2.70977553      16.53396211
Si       3.87887624       1.58558671       6.59640979
22
Lattice="5.195111162137577 -1.0932430276515477 0.7165512672119474 1.4173161463275197 5.133328910581085 1.1797003156641357 2.4959681425856926 1.7103184570986254 17.331573521937447" Properties=species:S:1:pos:R:3 unique_starting_index=40 config_type=initial n_minim_iter=21 stress="-1.2888919152064006e-05 1.1916618484137816e-06 -3.976383280085519e-06 1.1916618484137816e-06 -6.280127046201964e-06 7.428808022781316e-07 -3.976383280085519e-06 7.428808022781316e-07 -9.436239881857536e-06" pbc="T T T"
Si       8.68483856       2.02814063      16.25558612
Si       2.58770219       0.98665163       5.16844519
Si       5.12703342       1.03331610       8.09930216
Si       5.45157122       3.38653766      15.17997367
Si       4.83484684       2.91425420      17.04496984
Si       4.54986862       6.17322517       9.59105523
Si       5.23509115       1.43891891       2.91446382
Si       4.85748207       3.36282082      11.73045304
Si       3.72868722       1.78140141       1.05328615
Si       5.83739984       4.63255563      16.73740552
Si       4.06643556       1.53674755      11.95979746
Si       4.44073786       2.66802382      13.58413796
Si       1.77383135       1.68259077       1.60234866
Si       1.08005244       1.13040520       8.68980660
Si       4.74103597       1.54273451      15.55341770
Si       5.71374285       4.76578578      10.48756617
Si       2.80624994       2.94487992       5.56596077
Si       3.30402434       6.86523072       8.10688238
Si       4.29416747       1.92626545       4.64969601
Si       4.71122292       1.46074132      10.03995922
Si       6.77458665       2.70963113      16.53357692
Si       3.87858579       1.58543369       6.59617200
