6
Lattice="4.319060570426791 -0.32676828942058544 -0.15695964641360155 -1.6028278405045575 3.7114318552137506 0.07099536128735667 -1.715423664796814 -0.6938744289274988 9.467965465400018" Properties=species:S:1:pos:R:3 unique_starting_index=56 config_type=initial n_minim_iter=1 energy=-977.7031647925161 free_energy=-977.7031647925161 pbc="T T T"
Si      -0.88691943       2.87614385       7.36639805
Si       1.21307090       2.64297252      -0.20443396
Si      -1.98443286       3.29556687       2.16726502
Si      -0.26893748       0.97187550       7.28193728
Si       2.05346942       0.61668845       6.90630508
Si       0.09834981       1.92876698       2.03593362
6
Lattice="4.312364755136749 -0.3308050913849568 -0.15996859588589515 -1.6034660010446211 3.7156678359794544 0.07305486823296567 -1.719312170053945 -0.6903400592912705 9.444085610224684" Properties=species:S:1:pos:R:3 unique_starting_index=56 config_type=initial n_minim_iter=2 stress="-0.009289273796400275 -0.013167126744954336 0.003205314009278624 -0.013167126744954336 0.024116494159586707 0.001139684641337892 0.003205314009278624 0.001139684641337892 0.004889052996636829" pbc="T T T"
Si      -0.89465240       2.88335267       7.34790052
Si       1.20848529       2.64369438      -0.20441965
Si      -1.98546126       3.29998006       2.16417001
Si      -0.27373268       0.97247246       7.26334082
Si       2.04460267       0.61713635       6.88625391
Si       0.09456598       1.93152681       2.03182501
6
Lattice="4.310709918056947 -0.3263133863743901 -0.16439893643074238 -1.5997602271315567 3.7055196975563676 0.07504907155626002 -1.7299961836426216 -0.6891574582819467 9.416644834251857" Properties=species:S:1:pos:R:3 unique_starting_index=56 config_type=initial n_minim_iter=3 stress="-0.010726610944039172 -0.008726667983539162 0.0031543242223718306 -0.008726667983539162 0.006171318865308398 -0.0004042589461359708 0.0031543242223718306 -0.0004042589461359708 -0.009338857608681654" pbc="T T T"
Si      -0.90159212       2.87743347       7.32558203
Si       1.20978499       2.63817821      -0.20536784
Si      -1.98393014       3.29003274       2.16035743
Si      -0.27881338       0.96916633       7.24167356
Si       2.03683565       0.61852700       6.86182453
Si       0.09323494       1.92865451       2.02699564
6
Lattice="4.314356423695366 -0.3221857586970119 -0.16991307129557295 -1.5977122374213442 3.70323555547881 0.07828918278090694 -1.7439695841535223 -0.6874987502185022 9.419403629057655" Properties=species:S:1:pos:R:3 unique_starting_index=56 config_type=initial n_minim_iter=4 stress="0.01266948857358333 -0.0018113463642864544 0.001879449579709149 -0.0018113463642864544 0.02231436613656135 -0.00205321094963566 0.001879449579709149 -0.00205321094963566 -0.007790156069026284" pbc="T T T"
Si      -0.91066348       2.87897321       7.32741904
Si       1.21268015       2.63842701      -0.20656098
Si      -1.98474124       3.28738677       2.16437780
Si      -0.28492246       0.96943095       7.24337314
Si       2.03138153       0.62329635       6.85935428
Si       0.09182016       1.93058164       2.02920682
6
Lattice="4.309139718042772 -0.3188863730832361 -0.17808269606083307 -1.5934275088352647 3.695674617545848 0.0843401430400638 -1.759068002632847 -0.6794990445031257 9.437657939039298" Properties=species:S:1:pos:R:3 unique_starting_index=56 config_type=initial n_minim_iter=5 stress="-0.0018252704623036742 0.0038160586349862734 -0.0005359455024634174 0.0038160586349862734 0.012925760588506847 -0.0015796633826339946 -0.0005359455024634174 -0.0015796633826339946 -0.0034922959475148507" pbc="T T T"
Si      -0.92257169       2.87994740       7.34208155
Si       1.21181719       2.63396741      -0.20773335
Si      -1.98321911       3.28084104       2.17460781
Si      -0.29468012       0.97196945       7.25732717
Si       2.01879730       0.62966725       6.86701945
Si       0.08811114       1.93138744       2.03641485
6
Lattice="4.311578379853504 -0.32468570598834945 -0.18763909765244122 -1.599731904804398 3.687843241653749 0.09352098281258525 -1.7777397904608336 -0.6602141334185883 9.46118455690671" Properties=species:S:1:pos:R:3 unique_starting_index=56 config_type=initial n_minim_iter=6 stress="0.009195766933124884 -0.002108498658534903 0.002419735350581825 -0.002108498658534903 -0.002733018452374067 0.0017838422725123158 0.002419735350581825 0.0017838422725123158 0.00279494223671703" pbc="T T T"
Si      -0.94341751       2.88487255       7.36166623
Si       1.20603639       2.62370675      -0.20846649
Si      -1.99200143       3.27590290       2.18927859
Si      -0.30644162       0.98010659       7.27690516
Si       2.00534983       0.63497351       6.87809418
Si       0.07890964       1.93342103       2.04814356
6
Lattice="4.310840490975552 -0.35719291791419655 -0.24308877426865186 -1.6269002883152393 3.687010121414152 0.1338664237785071 -1.8870059631666978 -0.5926400456543065 9.506837187988767" Properties=species:S:1:pos:R:3 unique_starting_index=56 config_type=initial n_minim_iter=7 stress="0.005419171165940359 0.002958847102164296 -0.005077205206989105 0.002958847102164296 -0.011278382304760953 -0.0006417465858865924 -0.005077205206989105 -0.0006417465858865924 0.0005526921031058735" pbc="T T T"
Si      -1.06169862       2.90892320       7.39272350
Si       1.17083418       2.59932641      -0.22311119
Si      -2.03421454       3.27847821       2.24289981
Si      -0.38637018       1.02277726       7.31525958
Si       1.92614544       0.65393439       6.86831064
Si       0.02508801       1.96372433       2.09103742
6
Lattice="4.287510010181626 -0.3537683116053584 -0.22358828973135253 -1.6150033294542074 3.6866478841955534 0.13394716123679493 -1.833900092252198 -0.5750963807711776 9.515498226136312" Properties=species:S:1:pos:R:3 unique_starting_index=56 config_type=initial n_minim_iter=8 stress="-0.003632251806793168 0.00560284328706426 -0.0031468088493567985 0.00560284328706426 -0.011333751499222843 -0.001288541830232061 -0.0031468088493567985 -0.001288541830232061 0.0008998069525259267" pbc="T T T"
Si      -1.02265376       2.91923522       7.39955516
Si       1.15105260       2.59910689      -0.23031898
Si      -2.00690882       3.27450584       2.24749451
Si      -0.33446979       1.03635770       7.33347413
Si       1.95706999       0.66457587       6.89008975
Si       0.02653794       1.98852191       2.12205867
6
Lattice="4.260777319485315 -0.36727070590543237 -0.14894031617803966 -1.6144457261578065 3.6897201604954 0.15541800166381042 -1.647712472325574 -0.44052795696462727 9.50397693506245" Properties=species:S:1:pos:R:3 unique_starting_index=56 config_type=initial n_minim_iter=9 stress="-0.001798974713271305 1.529174216904876e-06 0.008967323368873702 1.529174216904876e-06 0.013997213437803283 0.0002847070646939371 0.008967323368873702 0.0002847070646939371 0.0021302093655972605" pbc="T T T"
Si      -0.89180748       2.99905727       7.43438452
Si       1.07130288       2.59598586      -0.25147529
Si      -1.96104011       3.30149523       2.27762732
Si      -0.15788157       1.12704219       7.36622297
Si       2.10947107       0.73149732       6.95749951
Si       0.03733978       2.06907871       2.23087659
6
Lattice="4.260867459775349 -0.36889100807959585 -0.1461681470630588 -1.6157467001012176 3.689283683939729 0.1585076541305519 -1.6405380495652306 -0.42885971245102844 9.503706134602698" Properties=species:S:1:pos:R:3 unique_starting_index=56 config_type=initial n_minim_iter=10 stress="-0.0028632398800735644 0.0011047048041689905 0.007149829457178969 0.0011047048041689905 0.012482251870343608 0.006464945754307702 0.007149829457178969 0.006464945754307702 -0.011715988985242851" pbc="T T T"
Si      -0.88683711       3.00489200       7.43837682
Si       1.06403814       2.59580372      -0.25561302
Si      -1.96070128       3.30397946       2.28202373
Si      -0.14943819       1.13387947       7.36788511
Si       2.11804263       0.73630918       6.96182457
Si       0.03669196       2.07489414       2.23976294
6
Lattice="4.291350463254397 -0.38147556864181653 -0.15138665327565828 -1.6400106631514368 3.682265346427874 0.11666300952797812 -1.6683712194750056 -0.5360479370415777 9.553275330484004" Properties=species:S:1:pos:R:3 unique_starting_index=56 config_type=initial n_minim_iter=11 stress="-0.005875143569891167 -0.008006917013271395 0.003263354995048928 -0.008006917013271395 0.013952603451715923 0.004050526073899979 0.003263354995048928 0.004050526073899979 -0.0070961142824382826" pbc="T T T"
Si      -0.90692179       2.90660796       7.43697565
Si       1.04287670       2.59794177      -0.31045148
Si      -1.99736474       3.28827651       2.26405887
Si      -0.16889165       1.03420510       7.37343005
Si       2.12820261       0.63422424       6.99119110
Si       0.03022020       2.03609971       2.22976856
6
Lattice="4.311804540850615 -0.3716443393501175 -0.166831898011971 -1.640329185802802 3.681935231413964 0.09197590421409274 -1.7173583512876909 -0.6204785564238181 9.579746788742202" Properties=species:S:1:pos:R:3 unique_starting_index=56 config_type=initial n_minim_iter=12 stress="0.0014554063132629076 -0.0028106146543809113 0.0015807299503285165 -0.0028106146543809113 0.00461276049555732 -0.002552056012311097 0.0015807299503285165 -0.002552056012311097 0.008390794899317409" pbc="T T T"
Si      -0.91719940       2.84087939       7.42180548
Si       1.03562979       2.61766860      -0.34404536
Si      -2.01933300       3.28887499       2.25986610
Si      -0.20023059       0.96647715       7.36090151
Si       2.11347547       0.57561258       7.00697207
Si       0.03555256       2.00343140       2.21026861
6
Lattice="4.313542301438895 -0.36862408502677174 -0.19761425088010245 -1.6394686303146913 3.6735037060781957 0.09346172304789596 -1.787877851629158 -0.6459989713021653 9.581557417974015" Properties=species:S:1:pos:R:3 unique_starting_index=56 config_type=initial n_minim_iter=13 stress="0.018470259471091908 0.007773022286180955 -0.004002005089334127 0.007773022286180955 -0.012155995181306764 0.0024049898234793357 -0.004002005089334127 0.0024049898234793357 -0.005207425761126802" pbc="T T T"
Si      -0.95503421       2.80068848       7.38356121
Si       0.99611728       2.62891676      -0.37122725
Si      -2.04504084       3.29616277       2.28639252
Si      -0.23399456       0.92971324       7.33465885
Si       2.07436133       0.55631911       7.00862621
Si       0.02830121       1.98564283       2.20354180
6
Lattice="4.293190840611827 -0.3693443439306006 -0.1943454605296967 -1.6319282996191105 3.6799636063709227 0.09522962526421762 -1.772545868150704 -0.6392757273187054 9.566667485537494" Properties=species:S:1:pos:R:3 unique_starting_index=56 config_type=initial n_minim_iter=14 stress="0.007297497201915105 0.003934385367110378 -0.0032626664618499207 0.003934385367110378 -0.002381367000070097 -0.004547485620080357 -0.0032626664618499207 -0.004547485620080357 0.011228004926177792" pbc="T T T"
Si      -0.94059347       2.80383496       7.35864742
Si       0.97276282       2.63719250      -0.36724346
Si      -2.03549651       3.30772669       2.29378451
Si      -0.21734320       0.93255218       7.32523103
Si       2.07183147       0.56747436       7.01168878
Si       0.03210151       1.99123764       2.19886039
6
Lattice="4.257601694024554 -0.37524510117539056 -0.14849880220180733 -1.622504305528222 3.690370462125071 0.08824855837271244 -1.656599494421112 -0.6124343340915847 9.520726176180048" Properties=species:S:1:pos:R:3 unique_starting_index=56 config_type=initial n_minim_iter=15 stress="-0.02007562049121198 0.0022051327143669977 -0.0027715836586764023 0.0022051327143669977 0.017430353026617024 0.0012872764497434926 -0.0027715836586764023 0.0012872764497434926 -0.005512889622648308" pbc="T T T"
Si      -0.85246001       2.81538816       7.31072203
Si       0.92166030       2.64950266      -0.36054322
Si      -1.99844560       3.32654225       2.29155431
Si      -0.12001486       0.94410538       7.31167579
Si       2.13817527       0.59348623       7.03729822
Si       0.05326014       2.01050616       2.19818359
6
Lattice="4.257774377598425 -0.3831943454498511 -0.14114689457488888 -1.6299773215396445 3.683901579408757 0.08248482259703048 -1.6396125058236515 -0.615065240541947 9.516905895551712" Properties=species:S:1:pos:R:3 unique_starting_index=56 config_type=initial n_minim_iter=16 stress="-1.987889086884685e-05 -0.0013027571069278113 -0.0006631913046072486 -0.0013027571069278113 0.016233331584022473 -0.0019674018050509653 -0.0006631913046072486 -0.0019674018050509653 0.0004961564275845165" pbc="T T T"
Si      -0.84120020       2.79780237       7.29215590
Si       0.89574822       2.64436607      -0.36838445
Si      -1.99884123       3.31917906       2.29197809
Si      -0.10187932       0.92798054       7.31375038
Si       2.15309648       0.58666077       7.04880363
Si       0.05142373       2.00917145       2.19619823
6
Lattice="4.26243100261558 -0.471672120407488 -0.022322385000386212 -1.7116941325285693 3.6083483335263487 0.07710484319607451 -1.3568139762541647 -0.45357347793306374 9.45461509202146" Properties=species:S:1:pos:R:3 unique_starting_index=56 config_type=initial n_minim_iter=17 stress="0.0759222179387513 0.008555843145305433 0.0003170044106740113 0.008555843145305433 0.027429409940012667 -0.016410422976192482 0.0003170044106740113 -0.016410422976192482 0.02203553299430168" pbc="T T T"
Si      -0.64153635       2.74131330       7.15575346
Si       0.62715729       2.57768553      -0.38014218
Si      -1.96158337       3.26453220       2.32842972
Si       0.14218940       0.89918949       7.38046180
Si       2.38494969       0.67592902       7.21239456
Si       0.05452449       2.02433445       2.20010132
6
Lattice="4.26233476566113 -0.4723958313993282 -0.02129861868475849 -1.712311547780884 3.6078346331561293 0.07685176680627183 -1.3543576163105369 -0.4527754207050048 9.454539606140326" Properties=species:S:1:pos:R:3 unique_starting_index=56 config_type=initial n_minim_iter=18 stress="0.07437704063435209 0.006356884708276561 0.0004348331185269021 0.006356884708276561 0.025265231101888132 -0.016406425520925336 0.0004348331185269021 -0.016406425520925336 0.02218262115181374" pbc="T T T"
Si      -0.63994518       2.74057257       7.15497084
Si       0.62500858       2.57725716      -0.38050791
Si      -1.96128769       3.26416008       2.32865605
Si       0.14434103       0.89868789       7.38113423
Si       2.38690169       0.67612611       7.21394553
Si       0.05458318       2.02434992       2.20026651
6
Lattice="4.251675707954793 -0.4730390737590664 0.010510735888314063 -1.709763985317474 3.6039404782606135 0.04703494410975254 -1.2821306420194374 -0.4989671449133102 9.5000651142463" Properties=species:S:1:pos:R:3 unique_starting_index=56 config_type=initial n_minim_iter=19 stress="0.04995183545080712 0.010836285775808897 0.006454317254030366 0.010836285775808897 -0.020650968018433944 -0.009064247849757689 0.006454317254030366 -0.009064247849757689 -0.02218391210611181" pbc="T T T"
Si      -0.58806654       2.70091507       7.18477451
Si       0.60594562       2.58150529      -0.40994346
Si      -1.94675924       3.25831495       2.31864170
Si       0.20241186       0.86002856       7.40936068
Si       2.44150446       0.62817747       7.26884421
Si       0.07270251       2.00941822       2.21301694
6
Lattice="4.2258113743751515 -0.47343207079653776 0.019952205391846986 -1.6995522632218332 3.6161990746199595 0.04341320402766848 -1.2494211967869813 -0.5020992728072956 9.552722391165096" Properties=species:S:1:pos:R:3 unique_starting_index=56 config_type=initial n_minim_iter=20 stress="0.041194093294925134 0.0043209221506678806 0.0009833749617030867 0.0043209221506678806 -0.001379273030150749 -0.0007009796741351012 0.0009833749617030867 -0.0007009796741351012 -0.023749217429905496" pbc="T T T"
Si      -0.55694296       2.69763013       7.21448174
Si       0.56689782       2.60411682      -0.43030507
Si      -1.93791248       3.28619206       2.34661999
Si       0.23588393       0.85930717       7.44008037
Si       2.45683565       0.61901620       7.33213658
Si       0.08497563       2.01235936       2.23467952
6
Lattice="4.191949738230182 -0.4652458108820614 0.04132180983906777 -1.6794707232560107 3.620254216055211 0.038533185970096306 -1.1890529553950475 -0.49913045088269337 9.584771914034272" Properties=species:S:1:pos:R:3 unique_starting_index=56 config_type=initial n_minim_iter=21 stress="0.016788414673155113 0.015022978402849179 -0.0031783601337273394 0.015022978402849179 -0.005330525766192407 -0.005406193278891836 -0.0031783601337273394 -0.005406193278891836 -0.0022996307926119" pbc="T T T"
Si      -0.49664440       2.69686732       7.22908590
Si       0.52873944       2.62336787      -0.44022409
Si      -1.90652438       3.30325930       2.37016539
Si       0.29043214       0.85905748       7.46797514
Si       2.48546638       0.62682510       7.39026320
Si       0.10428760       2.01535225       2.24387299
