6
Lattice="4.697949255947167 -5.854396839804699e-16 -1.390067347176284e-12 6.096855804486159e-16 4.892514117716324 6.075896105939232e-14 1.450762128443946e-12 -6.089013560091232e-14 4.903076729141549" Properties=species:S:1:pos:R:3 unique_starting_index=12 config_type=initial n_minim_iter=1 energy=-974.8237472358536 free_energy=-974.8237472358536 pbc="T T T"
Si       0.38862751       2.44625706       3.57970810
Si       0.38862751       2.44625706       1.32336863
Si       2.73987080       1.23262750       2.45153836
Si       2.73987080       3.65988662       2.45153836
Si       0.20807439       0.00000000      -0.00000000
Si       2.56139203       0.00000000      -0.00000000
6
Lattice="4.797899570478605 -5.978950932165599e-16 -1.4196414572827883e-12 5.973370530577696e-16 4.793421492714149 5.959301888201422e-14 1.4576984013715921e-12 -6.111672878386342e-14 4.926518944589363" Properties=species:S:1:pos:R:3 unique_starting_index=12 config_type=initial n_minim_iter=2 stress="0.006813130924978011 -5.86969922663202e-17 1.0351394832341518e-15 -5.86969922663202e-17 -0.007220890952306091 -1.186723928961509e-16 1.0351394832341518e-15 -1.186723928961509e-16 0.010390302012860788" pbc="T T T"
Si       0.39739133       2.39671075       3.62858507
Si       0.39739133       2.39671075       1.29793388
Si       2.79817326       1.22333713       2.46325947
Si       2.79817326       3.57008436       2.46325947
Si       0.21212816       0.00000000      -0.00000000
Si       2.61524647       0.00000000      -0.00000000
6
Lattice="4.777201953459088 -5.95001202838475e-16 -1.4126486186231357e-12 6.006916389080848e-16 4.817711464173789 5.987328674736262e-14 1.4389501049215715e-12 -6.031207738597289e-14 4.860092198340664" Properties=species:S:1:pos:R:3 unique_starting_index=12 config_type=initial n_minim_iter=3 stress="-0.00688329555429377 -7.15980950774797e-17 -2.3046010273362828e-15 -7.15980950774797e-17 -0.018206334854364747 -1.5831418332466579e-16 -2.3046010273362828e-15 -1.5831418332466579e-16 -0.014436819773587246" pbc="T T T"
Si       0.39594730       2.40885573       3.59117024
Si       0.39594730       2.40885573       1.26892196
Si       2.78626141       1.23644257       2.43004610
Si       2.78626141       3.58126889       2.43004610
Si       0.21140986       0.00000000      -0.00000000
Si       2.60290891       0.00000000      -0.00000000
6
Lattice="4.775170283391174 -5.965144598295381e-16 -1.409422369454913e-12 6.054004368565602e-16 4.870757154009493 6.052758682851327e-14 1.43753686063162e-12 -6.014125122165027e-14 4.846065536438337" Properties=species:S:1:pos:R:3 unique_starting_index=12 config_type=initial n_minim_iter=4 stress="-0.00043987843171847953 -5.422571331476247e-17 -1.6010512685841684e-15 -5.422571331476247e-17 -0.0008956381395832356 -1.6739520333475336e-17 -1.6010512685841684e-15 -1.6739520333475336e-17 -0.0059853243911561676" pbc="T T T"
Si       0.39601489       2.43537858       3.58813452
Si       0.39601489       2.43537858       1.25793101
Si       2.78522182       1.25457640       2.42303277
Si       2.78522182       3.61618075       2.42303277
Si       0.21142735       0.00000000      -0.00000000
Si       2.60093184       0.00000000      -0.00000000
6
Lattice="4.766813454299746 -5.953839238338311e-16 -1.4063668260987848e-12 6.048766343625509e-16 4.865799573673485 6.04575860964022e-14 1.4437177538252702e-12 -6.038485134124182e-14 4.864980413681966" Properties=species:S:1:pos:R:3 unique_starting_index=12 config_type=initial n_minim_iter=5 stress="-0.00019177545341149662 -8.096483622328195e-18 1.6397489554041896e-16 -8.096483622328195e-18 4.2749171310132794e-05 -6.903050201077575e-17 1.6397489554041896e-16 -6.903050201077575e-17 -0.00036687546851419387" pbc="T T T"
Si       0.39567024       2.43289979       3.60591632
Si       0.39567024       2.43289979       1.25906410
Si       2.78045940       1.25667055       2.43249021
Si       2.78045940       3.60912903       2.43249021
Si       0.21086523       0.00000000      -0.00000000
Si       2.59565161       0.00000000      -0.00000000
6
Lattice="4.767665735524923 -5.954905602113999e-16 -1.4066170143089354e-12 6.047733840743616e-16 4.864978690375916 6.044612214063331e-14 1.4441383415195842e-12 -6.040372804549393e-14 4.866396471848107" Properties=species:S:1:pos:R:3 unique_starting_index=12 config_type=initial n_minim_iter=6 stress="0.00011282707410147933 -1.7210167433950924e-17 1.3042574691176729e-16 -1.7210167433950924e-17 4.576320583019715e-05 -4.522718030502327e-17 1.3042574691176729e-16 -4.522718030502327e-17 0.00021485264174885295" pbc="T T T"
Si       0.39606066       2.43248935       3.60749767
Si       0.39606066       2.43248935       1.25889881
Si       2.78108668       1.25796460       2.43319824
Si       2.78108668       3.60701409       2.43319824
Si       0.21071367       0.00000000      -0.00000000
Si       2.59540530       0.00000000      -0.00000000
6
Lattice="4.766928545745172 -5.953996002109982e-16 -1.4063956208521317e-12 6.048205356881589e-16 4.8653618732846615 6.040191461237218e-14 1.4444044551333772e-12 -6.046388878781443e-14 4.867289202797162" Properties=species:S:1:pos:R:3 unique_starting_index=12 config_type=initial n_minim_iter=7 stress="0.00011762567904841048 -1.5823006336604323e-17 3.0258831431646303e-16 -1.5823006336604323e-17 8.605373845533125e-05 -1.0222029627424782e-16 3.0258831431646303e-16 -1.0222029627424782e-16 0.0004894606431229122" pbc="T T T"
Si       0.39665012       2.43268094       3.60778618
Si       0.39665012       2.43268094       1.25950303
Si       2.78095455       1.25983168       2.43364460
Si       2.78095455       3.60553020       2.43364460
Si       0.21014393       0.00000000      -0.00000000
Si       2.59364398       0.00000000      -0.00000000
6
Lattice="4.766913587301023 -5.953988438737956e-16 -1.406386731254313e-12 6.049535471704814e-16 4.86643592231326 6.038986391292884e-14 1.4439940483117554e-12 -6.047187855946419e-14 4.865882277244442" Properties=species:S:1:pos:R:3 unique_starting_index=12 config_type=initial n_minim_iter=8 stress="2.6328642828647832e-05 3.3344655298584866e-17 2.5357119961178506e-16 3.3344655298584866e-17 -3.2036394618169043e-05 1.38788269609658e-17 2.5357119961178506e-16 1.38788269609658e-17 2.2686161383598064e-05" pbc="T T T"
Si       0.39793883       2.43321796       3.60553531
Si       0.39793883       2.43321796       1.26034696
Si       2.78163137       1.26181455       2.43294114
Si       2.78163137       3.60462137       2.43294114
Si       0.20864366       0.00000000      -0.00000000
Si       2.59118445       0.00000000      -0.00000000
6
Lattice="4.763517248418747 -5.949780298413562e-16 -1.4053721586619873e-12 6.055220891468138e-16 4.87099916206778 6.049195573574102e-14 1.4415616768848887e-12 -6.032371699394111e-14 4.857613308251958" Properties=species:S:1:pos:R:3 unique_starting_index=12 config_type=initial n_minim_iter=9 stress="-0.0010135374295134542 -1.2067618368090009e-17 -4.1583723598787683e-16 -1.2067618368090009e-17 0.0001311213120862004 -6.532643019297501e-17 -4.1583723598787683e-16 -6.532643019297501e-17 -0.002977880300747707" pbc="T T T"
Si       0.40831836       2.43549958       3.59457478
Si       0.40831836       2.43549958       1.26303853
Si       2.78690213       1.25910214       2.42880665
Si       2.78690213       3.61189703       2.42880665
Si       0.19003701       0.00000000      -0.00000000
Si       2.57196492       0.00000000      -0.00000000
6
Lattice="4.6891598304271245 -5.930804661301562e-16 -1.348738084321963e-12 6.099557379684945e-16 4.967276359148007 6.214318776529921e-14 1.4185728841909994e-12 -5.735054532814334e-14 4.656254731529617" Properties=species:S:1:pos:R:3 unique_starting_index=12 config_type=initial n_minim_iter=10 stress="-0.057838792648441245 5.716353326386902e-17 1.1899852992164549e-14 5.716353326386902e-17 -0.042610948435669115 -1.3466872169939932e-17 1.1899852992164549e-14 -1.3466872169939932e-17 -0.03972256112627966" pbc="T T T"
Si       0.75756720       2.48363818       3.34004505
Si       0.75756720       2.48363818       1.31620968
Si       2.98800588       1.20605520       2.32812737
Si       2.98800588       3.76122116       2.32812737
Si      -0.42407572       0.00000000       0.00000000
Si       1.94250493       0.00000000      -0.00000000
6
Lattice="4.689008979500225 -5.935374659453423e-16 -1.348736929283776e-12 6.094975546308132e-16 4.967572636301475 6.246621955526426e-14 1.4183557733470696e-12 -5.702406654692126e-14 4.655661920019676" Properties=species:S:1:pos:R:3 unique_starting_index=12 config_type=initial n_minim_iter=11 stress="-0.05791285977131015 1.3148910071749888e-16 1.1350564952740963e-14 1.3148910071749888e-16 -0.04290929625103592 2.345069583971206e-16 1.1350564952740963e-14 2.345069583971206e-16 -0.04144542219935865" pbc="T T T"
Si       0.75861464       2.48378632       3.33928822
Si       0.75861464       2.48378632       1.31637370
Si       2.98865179       1.20589826       2.32783096
Si       2.98865179       3.76167438       2.32783096
Si      -0.42590953       0.00000000       0.00000000
Si       1.94066219       0.00000000      -0.00000000
6
Lattice="4.768456705871382 -6.050083413515962e-16 -1.3676528006171599e-12 6.076560345262893e-16 4.967328084244238 6.260541114265672e-14 1.428201829445308e-12 -5.707329785309825e-14 4.670871216805882" Properties=species:S:1:pos:R:3 unique_starting_index=12 config_type=initial n_minim_iter=12 stress="0.011542963476943167 -7.006193687879744e-17 2.595176280827236e-15 -7.006193687879744e-17 0.0059153044830446404 3.8726900835627495e-16 2.595176280827236e-15 3.8726900835627495e-16 -0.012792632596972149" pbc="T T T"
Si       0.76959214       2.48366404       3.34462711
Si       0.76959214       2.48366404       1.32624410
Si       3.04477775       1.21149826       2.33543561
Si       3.04477775       3.75582983       2.33543561
Si      -0.43871299       0.00000000       0.00000000
Si       1.97190660       0.00000000      -0.00000000
6
Lattice="4.726260449847153 -6.002598233509317e-16 -1.353139737944686e-12 6.062112675057856e-16 4.959288789107263 6.24086260575494e-14 1.4492797604658614e-12 -5.802573473277026e-14 4.738555318339195" Properties=species:S:1:pos:R:3 unique_starting_index=12 config_type=initial n_minim_iter=13 stress="0.004115757408449677 2.56695592015244e-18 1.2118448477396782e-14 2.56695592015244e-18 0.01656096407987484 3.218256807536775e-16 1.2118448477396782e-14 3.218256807536775e-16 0.010705706828307718" pbc="T T T"
Si       0.75922062       2.47964439       3.37668663
Si       0.75922062       2.47964439       1.36186869
Si       3.03435287       1.22111129       2.36927766
Si       3.03435287       3.73817750       2.36927766
Si      -0.45376007       0.00000000       0.00000000
Si       1.94747221       0.00000000      -0.00000000
6
Lattice="4.747168734716056 -6.0280986694759685e-16 -1.3594414816913192e-12 6.010728469176384e-16 4.918803751760099 6.197948404788864e-14 1.4519086027850836e-12 -5.807074295958258e-14 4.74745191728928" Properties=species:S:1:pos:R:3 unique_starting_index=12 config_type=initial n_minim_iter=14 stress="0.0005699715487749038 5.3380382990294256e-17 1.537247067869913e-14 5.3380382990294256e-17 0.007346493799149159 1.2081620644250784e-17 1.537247067869913e-14 1.2081620644250784e-17 0.018283137188317138" pbc="T T T"
Si       0.74169342       2.45940188       3.38310647
Si       0.74169342       2.45940188       1.36434545
Si       3.06654159       1.22835151       2.37372596
Si       3.06654159       3.69045224       2.37372596
Si      -0.46454800       0.00000000       0.00000000
Si       1.96910946       0.00000000      -0.00000000
6
Lattice="4.774529994638611 -6.061616860366964e-16 -1.3676505144755939e-12 5.99125693329248e-16 4.903549650608621 6.174419536143863e-14 1.444172813094971e-12 -5.777219666098179e-14 4.7199016542761365" Properties=species:S:1:pos:R:3 unique_starting_index=12 config_type=initial n_minim_iter=15 stress="-0.0019037858526996338 -1.6497830316903464e-16 6.2924850213347794e-15 -1.6497830316903464e-16 -0.0038416706873874566 2.912767133434277e-16 6.2924850213347794e-15 2.912767133434277e-16 -0.013851345835163752" pbc="T T T"
Si       0.73375935       2.45177483       3.36663173
Si       0.73375935       2.45177483       1.35326992
Si       3.11655580       1.24883383       2.35995083
Si       3.11655580       3.65471582       2.35995083
Si      -0.49609284       0.00000000       0.00000000
Si       1.96906491       0.00000000      -0.00000000
6
Lattice="4.776207050755187 -6.064176121605287e-16 -1.3678684184830135e-12 5.998058253581382e-16 4.909322069018822 6.166318627138219e-14 1.443442210058862e-12 -5.787867614497036e-14 4.716276271067586" Properties=species:S:1:pos:R:3 unique_starting_index=12 config_type=initial n_minim_iter=16 stress="0.00025254280913645046 -1.2588387666230866e-16 1.092965138716929e-14 -1.2588387666230866e-16 -0.0009360080745337028 2.393575453013302e-17 1.092965138716929e-14 2.393575453013302e-17 0.0010548149180038982" pbc="T T T"
Si       0.73623014       2.45466103       3.36709295
Si       0.73623014       2.45466103       1.34918332
Si       3.12053693       1.24782013       2.35813814
Si       3.12053693       3.66150194       2.35813814
Si      -0.50097480       0.00000000       0.00000000
Si       1.96426529       0.00000000      -0.00000000
6
Lattice="4.772681832486671 -6.060209395928472e-16 -1.3666213102368373e-12 6.002576114385323e-16 4.913156469976348 6.17442552473305e-14 1.443644735867956e-12 -5.784566371202655e-14 4.716360971383371" Properties=species:S:1:pos:R:3 unique_starting_index=12 config_type=initial n_minim_iter=17 stress="-0.0004300883825741624 3.923165306261943e-17 1.0526693246743668e-14 3.923165306261943e-17 0.00031520815311163094 1.371495053647253e-16 1.0526693246743668e-14 1.371495053647253e-16 0.000989884085437381" pbc="T T T"
Si       0.73541652       2.45657823       3.36713151
Si       0.73541652       2.45657823       1.34922946
Si       3.11538861       1.24510527       2.35818049
Si       3.11538861       3.66805120       2.35818049
Si      -0.49431991       0.00000000       0.00000000
Si       1.96276106       0.00000000      -0.00000000
6
Lattice="4.773290823092064 -6.061286045375558e-16 -1.366638667783438e-12 5.999779096456237e-16 4.911227822507968 6.167767367240695e-14 1.4443378848238085e-12 -5.791142318069054e-14 4.718169168840478" Properties=species:S:1:pos:R:3 unique_starting_index=12 config_type=initial n_minim_iter=18 stress="0.0017364635974160645 1.2345766086686563e-16 1.0558117186610012e-14 1.2345766086686563e-16 0.0006652508490164463 1.3145410531040237e-16 1.0558117186610012e-14 1.3145410531040237e-16 0.0006677197737955178" pbc="T T T"
Si       0.73445727       2.45561391       3.36792273
Si       0.73445727       2.45561391       1.35024644
Si       3.11782771       1.24220050       2.35908458
Si       3.11782771       3.66902732       2.35908458
Si      -0.49254815       0.00000000       0.00000000
Si       1.95919968       0.00000000      -0.00000000
6
Lattice="4.769828884566302 -6.057385069311321e-16 -1.3654178620715704e-12 6.00061824007921e-16 4.91215670613279 6.16831796185928e-14 1.444681499857427e-12 -5.792492919420797e-14 4.718773577763547" Properties=species:S:1:pos:R:3 unique_starting_index=12 config_type=initial n_minim_iter=19 stress="-0.00014402870248923463 -1.4212769364489913e-16 1.1014923106536196e-14 -1.4212769364489913e-16 -3.0817485593106496e-05 5.809818038384785e-17 1.1014923106536196e-14 5.809818038384785e-17 0.0001882507061248772" pbc="T T T"
Si       0.73254447       2.45607835       3.36819267
Si       0.73254447       2.45607835       1.35058090
Si       3.11715336       1.24224966       2.35938679
Si       3.11715336       3.66990704       2.35938679
Si      -0.49131512       0.00000000       0.00000000
Si       1.95648931       0.00000000      -0.00000000
