6
Lattice="5.004164421277387 0.0 0.0 0.0 5.004164421277387 0.0 -2.375869113658015e-65 -2.375869113658015e-65 8.404670152191388" Properties=species:S:1:pos:R:3 unique_starting_index=46 config_type=initial n_minim_iter=1 energy=-970.1517255746443 free_energy=-970.1517255746443 pbc="T T T"
Si       3.89351255       1.11065187       6.55134684
Si       1.11065187       3.89351255       6.55134684
Si       3.89351255       3.89351255       1.85332331
Si       1.11065187       1.11065187       1.85332331
Si       2.50208221       2.50208221       7.37205568
Si       2.50208221       2.50208221       1.03261447
6
Lattice="5.027391875200247 3.064758139224537e-147 3.071786326789712e-67 0.0 5.027391875200247 0.0 -2.3353357115599784e-65 -2.386897006772317e-65 8.36235029283719" Properties=species:S:1:pos:R:3 unique_starting_index=46 config_type=initial n_minim_iter=2 stress="-0.0014751603157879215 -1.2606880545483586e-17 -1.497440574903828e-17 -1.2606880545483586e-17 -0.0014751603157879215 -1.7925408275609475e-17 -1.497440574903828e-17 -1.7925408275609475e-17 -0.0029452696413016957" pbc="T T T"
Si       3.91189430       1.11549758       6.51590258
Si       1.11549758       3.91189430       6.51590258
Si       3.91189430       3.91189430       1.84644771
Si       1.11549758       1.11549758       1.84644771
Si       2.51369594       2.51369594       7.33772774
Si       2.51369594       2.51369594       1.02462255
6
Lattice="5.052907586527412 1.5166120456146485e-85 3.057398891638174e-67 7.790860595544453e-86 5.052907586527412 1.609427793971716e-17 -2.3476700762874246e-65 2.6959188651090173e-17 8.380859427387486" Properties=species:S:1:pos:R:3 unique_starting_index=46 config_type=initial n_minim_iter=3 stress="0.0010623727600832156 -3.735695412783834e-17 6.099179694023405e-18 -3.735695412783834e-17 0.0010623727600832156 4.8935041845890836e-18 6.099179694023405e-18 4.8935041845890836e-18 6.693685508327899e-05" pbc="T T T"
Si       3.93211522       1.12079237       6.52721981
Si       1.12079237       3.93211522       6.52721981
Si       3.93211522       3.93211522       1.85363962
Si       1.12079237       1.12079237       1.85363962
Si       2.52645379       2.52645379       7.35412948
Si       2.52645379       2.52645379       1.02672995
6
Lattice="5.078522590297737 5.060257670808488e-80 2.899463249669647e-67 2.591210149945096e-66 5.0785225902977364 9.026794271269802e-19 -2.3624563026273415e-65 1.4803823645416546e-18 8.401549397880132" Properties=species:S:1:pos:R:3 unique_starting_index=46 config_type=initial n_minim_iter=4 stress="0.0038274880008934984 2.2543884141925926e-17 -3.374458848168341e-18 2.2543884141925926e-17 0.003827488000893515 1.1319859115710612e-17 -3.374458848168341e-18 1.1319859115710612e-17 0.0013041454999860441" pbc="T T T"
Si       3.95502938       1.12349321       6.50972415
Si       1.12349321       3.95502938       6.50972415
Si       3.95502938       3.95502938       1.89182525
Si       1.12349321       1.12349321       1.89182525
Si       2.53926130       2.53926130       7.36441469
Si       2.53926130       2.53926130       1.03713471
6
Lattice="5.023828480178265 -4.253929913468631e-64 -2.4168952858434983e-67 2.562495900527952e-64 5.023828480178264 2.8308902966797925e-17 -2.4260102528596267e-65 4.713644603931174e-17 8.486451270042389" Properties=species:S:1:pos:R:3 unique_starting_index=46 config_type=initial n_minim_iter=5 stress="0.0014551964279241767 7.256756263274352e-18 6.8418764027366356e-18 7.256756263274352e-18 0.001455196427924044 9.324237589827193e-18 6.8418764027366356e-18 9.324237589827193e-18 -0.0015067832299958729" pbc="T T T"
Si       3.92073505       1.10309343       6.49979639
Si       1.10309343       3.92073505       6.49979639
Si       3.92073505       3.92073505       1.98665488
Si       1.10309343       1.10309343       1.98665488
Si       2.51191424       2.51191424       7.42714725
Si       2.51191424       2.51191424       1.05930402
6
Lattice="4.884682167566313 -4.2857933149453776e-64 6.8241421412877455e-68 2.702491884081543e-64 4.884682167566312 1.244959186887048e-16 -2.313589775139411e-65 1.9899635897371372e-16 8.825852312592703" Properties=species:S:1:pos:R:3 unique_starting_index=46 config_type=initial n_minim_iter=6 stress="0.015331605355290387 -2.6360336926062158e-17 5.422409717068089e-17 -2.6360336926062158e-17 0.015331605355290405 2.995806131435121e-17 5.422409717068089e-17 2.995806131435121e-17 0.00552084156133025" pbc="T T T"
Si       3.83853215       1.04615001       6.59659449
Si       1.04615001       3.83853215       6.59659449
Si       3.83853215       3.83853215       2.22925783
Si       1.04615001       1.04615001       2.22925783
Si       2.44234108       2.44234108       7.72063936
Si       2.44234108       2.44234108       1.10521295
6
Lattice="4.791272984431874 -4.203657950273211e-64 3.251705134027339e-66 2.65059294178115e-64 4.791272984431874 2.014441629457864e-17 -1.7556126008012658e-65 1.7141749328223817e-17 9.013758230961523" Properties=species:S:1:pos:R:3 unique_starting_index=46 config_type=initial n_minim_iter=7 stress="0.026851416911003376 -5.0434805111254987e-17 8.557505400960541e-17 -5.0434805111254987e-17 0.026851416911003376 1.2336307029457267e-17 8.557505400960541e-17 1.2336307029457267e-17 0.018603913804839993" pbc="T T T"
Si       3.77914454       1.01212844       6.65416364
Si       1.01212844       3.77914454       6.65416364
Si       3.77914454       3.77914454       2.35959459
Si       1.01212844       1.01212844       2.35959459
Si       2.39563649       2.39563649       7.88396758
Si       2.39563649       2.39563649       1.12979065
6
Lattice="4.08517058174604 5.739381449808851e-65 1.5000312448498152e-65 1.6818791562607092e-64 4.085170581746049 -3.571255650933893e-16 -1.1244371280242607e-75 -6.186595824464564e-16 10.250207914089355" Properties=species:S:1:pos:R:3 unique_starting_index=46 config_type=initial n_minim_iter=8 stress="0.07542068581492017 1.5803603648237727e-16 -8.3468329430051e-17 1.5803603648237727e-16 0.0754206858149205 -1.7862063047765843e-16 -8.3468329430051e-17 -1.7862063047765843e-16 0.09970795256592671" pbc="T T T"
Si       3.30615319       0.77901739       7.00905512
Si       0.77901739       3.30615319       7.00905512
Si       3.30615319       3.30615319       3.24115279
Si       0.77901739       0.77901739       3.24115279
Si       2.04258529       2.04258529       8.97847578
Si       2.04258529       2.04258529       1.27173214
6
Lattice="4.026822746020227 4.708640223920311e-65 1.5137461430636503e-65 1.8096597961181897e-64 4.026822746020231 -2.674071266980645e-16 3.796960066722202e-77 -4.555914507883566e-16 10.343926333607353" Properties=species:S:1:pos:R:3 unique_starting_index=46 config_type=initial n_minim_iter=9 stress="0.07160352009769613 2.5152628779513802e-17 6.5659678467709496e-18 2.5152628779513802e-17 0.07160352009769617 -5.926441730291345e-17 6.5659678467709496e-18 -5.926441730291345e-17 0.10327249328894225" pbc="T T T"
Si       3.26502939       0.76179335       7.02570951
Si       0.76179335       3.26502939       7.02570951
Si       3.26502939       3.26502939       3.31821682
Si       0.76179335       0.76179335       3.31821682
Si       2.01341137       2.01341137       9.06092912
Si       2.01341137       2.01341137       1.28299721
6
Lattice="3.7506273739657616 -4.2421518161845945e-64 1.4703307203311775e-65 4.0258971030074534e-64 3.7506273739657625 -1.2312513295255937e-16 -1.136853227370442e-79 -2.0480576410332675e-16 10.04725444015808" Properties=species:S:1:pos:R:3 unique_starting_index=46 config_type=initial n_minim_iter=10 stress="-0.03843707608981472 -2.6943196050263403e-16 1.1920823757244503e-16 -2.6943196050263403e-16 -0.03843707608981464 4.248040467536359e-17 1.1920823757244503e-16 4.248040467536359e-17 0.06519829539777988" pbc="T T T"
Si       3.01888559       0.73174179       6.90085661
Si       0.73174179       3.01888559       6.90085661
Si       3.01888559       3.01888559       3.14639783
Si       0.73174179       0.73174179       3.14639783
Si       1.87531369       1.87531369       8.82757502
Si       1.87531369       1.87531369       1.21967942
6
Lattice="3.82034936728209 -7.360803450264582e-64 1.3727131526199029e-65 1.8935211101938396e-64 3.820349367282093 7.405056800550341e-16 1.8995827904101544e-81 1.2824463880693921e-15 9.380201424763271" Properties=species:S:1:pos:R:3 unique_starting_index=46 config_type=initial n_minim_iter=11 stress="0.023406686325163045 -2.367962148179672e-16 1.6571139796669453e-16 -2.367962148179672e-16 0.02340668632516328 2.388723655176477e-16 1.6571139796669453e-16 2.388723655176477e-16 0.08160914656020433" pbc="T T T"
Si       3.04580339       0.77454598       6.56224686
Si       0.77454598       3.04580339       6.56224686
Si       3.04580339       3.04580339       2.81795456
Si       0.77454598       0.77454598       2.81795456
Si       1.91017468       1.91017468       8.21949768
Si       1.91017468       1.91017468       1.16070374
6
Lattice="3.8121495672167494 -7.952215202459698e-64 1.3188883000226935e-65 2.3448649042142572e-64 3.8121495672167502 8.443776431233815e-16 3.1802385972882567e-82 1.4967558838098466e-15 9.012398466034131" Properties=species:S:1:pos:R:3 unique_starting_index=46 config_type=initial n_minim_iter=12 stress="0.011994429583622833 -3.729775210918382e-16 3.631256101895425e-16 -3.729775210918382e-16 0.011994429583622672 4.837081241043978e-16 3.631256101895425e-16 4.837081241043978e-16 0.03191054141542374" pbc="T T T"
Si       3.02830427       0.78384530       6.32351570
Si       0.78384530       3.02830427       6.32351570
Si       3.02830427       3.02830427       2.68888277
Si       0.78384530       0.78384530       2.68888277
Si       1.90607478       1.90607478       7.88227152
Si       1.90607478       1.90607478       1.13012694
6
Lattice="3.802786493976329 -7.932683656791988e-64 1.3037020205218288e-65 5.982369246597098e-64 3.8027864939763276 9.23999170790208e-16 1.289829660283438e-81 1.6407736974696505e-15 8.908625612733374" Properties=species:S:1:pos:R:3 unique_starting_index=46 config_type=initial n_minim_iter=13 stress="-0.0016905465229425983 -3.3264648668009997e-16 5.491465210899056e-16 -3.3264648668009997e-16 -0.001690546522942819 3.8847706574722773e-16 5.491465210899056e-16 3.8847706574722773e-16 -0.004095636013865064" pbc="T T T"
Si       3.02105686       0.78172964       6.20830707
Si       0.78172964       3.02105686       6.20830707
Si       3.02105686       3.02105686       2.70031854
Si       0.78172964       0.78172964       2.70031854
Si       1.90139325       1.90139325       7.77767487
Si       1.90139325       1.90139325       1.13095074
6
Lattice="3.8019759451467814 -7.930992836793709e-64 1.3065558155845517e-65 5.108228891468193e-64 3.801975945146778 1.034911950192723e-15 1.0347908011978033e-83 1.823934883073517e-15 8.928126535021669" Properties=species:S:1:pos:R:3 unique_starting_index=46 config_type=initial n_minim_iter=14 stress="-0.0011000709066786355 -2.91629102779464e-16 3.4618451483553474e-16 -2.91629102779464e-16 -0.0011000709066789109 3.4891926440801816e-16 3.4618451483553474e-16 3.4891926440801816e-16 -0.001146169839215573" pbc="T T T"
Si       3.02046815       0.78150780       6.21957125
Si       0.78150780       3.02046815       6.21957125
Si       3.02046815       3.02046815       2.70855529
Si       0.78150780       0.78150780       2.70855529
Si       1.90098797       1.90098797       7.79534892
Si       1.90098797       1.90098797       1.13277762
6
Lattice="3.798472586764381 2.6088679779317863e-63 1.311599114198767e-65 -2.4045443892580724e-63 3.7984725867643814 1.2236048163659678e-15 2.0273164379384356e-79 2.133609712751573e-15 8.962589056749016" Properties=species:S:1:pos:R:3 unique_starting_index=46 config_type=initial n_minim_iter=15 stress="-0.0004000099247527088 -2.008975360018056e-16 3.663049835224744e-16 -2.008975360018056e-16 -0.0004000099247527088 1.6800831477685082e-16 3.663049835224744e-16 1.6800831477685082e-16 0.0031785018646123078" pbc="T T T"
Si       3.01592672       0.78254587       6.24077802
Si       0.78254587       3.01592672       6.24077802
Si       3.01592672       3.01592672       2.72181103
Si       0.78254587       0.78254587       2.72181103
Si       1.89923629       1.89923629       7.82762241
Si       1.89923629       1.89923629       1.13496664
6
Lattice="3.7952368088253596 6.635716613877394e-64 1.3118500349867325e-65 -4.2242081164813654e-63 3.795236808825357 1.4609832790758602e-15 5.377166243709215e-80 2.5303733090733104e-15 8.96430368119747" Properties=species:S:1:pos:R:3 unique_starting_index=46 config_type=initial n_minim_iter=16 stress="-0.0005184508040417022 -2.6396982578229296e-16 1.7096129409248244e-16 -2.6396982578229296e-16 -0.0005184508040417022 2.976197669132173e-16 1.7096129409248244e-16 2.976197669132173e-16 -0.00033076175815666023" pbc="T T T"
Si       3.00850406       0.78673275       6.23627673
Si       0.78673275       3.00850406       6.23627673
Si       3.00850406       3.00850406       2.72802695
Si       0.78673275       0.78673275       2.72802695
Si       1.89761840       1.89761840       7.83121230
Si       1.89761840       1.89761840       1.13309139
6
Lattice="3.7954376614413827 6.332462491393926e-64 1.3125465211854467e-65 -4.194071141261519e-63 3.7954376614413765 1.635368495853204e-15 2.483751587441224e-80 2.822303291776526e-15 8.969063000958492" Properties=species:S:1:pos:R:3 unique_starting_index=46 config_type=initial n_minim_iter=17 stress="-0.0001393022088043336 -4.2362965011754127e-16 1.243385536743319e-16 -4.2362965011754127e-16 -0.0001393022088044986 2.8267711848075306e-16 1.243385536743319e-16 2.8267711848075306e-16 0.00010467110105349081" pbc="T T T"
Si       3.00843513       0.78700253       6.23753568
Si       0.78700253       3.00843513       6.23753568
Si       3.00843513       3.00843513       2.73152732
Si       0.78700253       0.78700253       2.73152732
Si       1.89771883       1.89771883       7.83581562
Si       1.89771883       1.89771883       1.13324738
6
Lattice="3.795704014757718 6.332906886095045e-64 1.3125841208202637e-65 -4.209545734562301e-63 3.795704014757714 1.824276896252695e-15 1.1386135473830061e-80 3.1396804764606518e-15 8.969319931656205" Properties=species:S:1:pos:R:3 unique_starting_index=46 config_type=initial n_minim_iter=18 stress="5.5993849937646406e-06 -3.5740396532808023e-16 2.1853039094480421e-16 -3.5740396532808023e-16 5.5993849935447e-06 2.4937237131353605e-16 2.1853039094480421e-16 2.4937237131353605e-16 5.921167834811883e-05" pbc="T T T"
Si       3.00862668       0.78707734       6.23721593
Si       0.78707734       3.00862668       6.23721593
Si       3.00862668       3.00862668       2.73210401
Si       0.78707734       0.78707734       2.73210401
Si       1.89785201       1.89785201       7.83628635
Si       1.89785201       1.89785201       1.13303358
