20
Lattice="5.181401145556782 -3.0533534733478255e-16 -4.470827459624669e-14 3.0292201914785803e-16 5.140448070391707 -5.32049188087838e-14 1.5962495621473642e-13 1.9147448356642813e-13 18.499504587455508" Properties=species:S:1:pos:R:3 unique_starting_index=4 config_type=initial n_minim_iter=1 energy=-3258.801394670049 free_energy=-3258.801394670049 pbc="T T T"
Si       3.19002014       3.15165772      11.48482039
Si       3.19002014       1.98879035       7.01468420
Si       1.90942348       1.88825687      10.51795570
Si       1.90942348       3.25219120       7.98154889
Si       1.99138101       0.58143368      16.26443649
Si       1.99138101       4.55901439       2.23506809
Si       3.27197767       4.45848091      17.23130118
Si       3.27197767       0.68196716       1.26820341
Si       2.43709294       4.30089810       4.18539742
Si       2.43709294       0.83954997      14.31410717
Si       2.95598265       4.27693227      15.25726003
Si       2.95598265       0.86351580       3.24224456
Si       2.74430821       1.73067407       5.06435487
Si       2.74430821       3.40977400      13.43514971
Si       2.22541850       1.70670824      12.49199685
Si       2.22541850       3.43373983       6.00750773
Si       4.59638799       2.96518207      17.57489401
Si       4.59638799       2.17526600       0.92461058
Si       0.58501315       4.74549003       8.32514172
Si       0.58501315       0.39495804      10.17436287
20
Lattice="5.179279239603672 -3.0521030530985493e-16 -4.468996550351928e-14 3.0250367861211e-16 5.133349022901565 -5.3347601374491057e-14 1.5936738064454525e-13 1.903913397824038e-13 18.469653237419006" Properties=species:S:1:pos:R:3 unique_starting_index=4 config_type=initial n_minim_iter=2 stress="-0.0014730313845189127 -1.6798487548139397e-16 -6.262693204353449e-17 -1.6798487548139397e-16 0.0009581921424205303 -1.791537218458366e-15 -6.262693204353449e-17 -1.791537218458366e-15 -0.007523676164621532" pbc="T T T"
Si       3.18857450       3.14709991      11.46631246
Si       3.18857450       1.98624911       7.00334077
Si       1.90864232       1.88565204      10.50103864
Si       1.90864232       3.24769698       7.96861460
Si       1.99070474       0.58042540      16.23816739
Si       1.99070474       4.55292362       2.23148585
Si       3.27063692       4.45232655      17.20344122
Si       3.27063692       0.68102247       1.26621202
Si       2.43612668       4.29512266       4.17866211
Si       2.43612668       0.83822636      14.29099112
Si       2.95475878       4.27121721      15.23255461
Si       2.95475878       0.86213181       3.23709863
Si       2.74315256       1.72844815       5.05616450
Si       2.74315256       3.40490087      13.41348873
Si       2.22452046       1.70454270      12.47192525
Si       2.22452046       3.42880632       5.99772799
Si       4.59434185       2.96118052      17.54662204
Si       4.59434185       2.17216850       0.92303120
Si       0.58493739       4.73884301       8.31179542
Si       0.58493739       0.39450601      10.15785781
20
Lattice="5.1798161165037495 -3.052419429866537e-16 -4.469459800334414e-14 3.0204193487132177e-16 5.125513442879997 -5.2775987200659273e-14 1.595191872885453e-13 1.9243340396584307e-13 18.487246649965645" Properties=species:S:1:pos:R:3 unique_starting_index=4 config_type=initial n_minim_iter=3 stress="-0.005192327879260416 -1.4928982551049694e-15 -6.08356038955275e-16 -1.4928982551049694e-15 -0.010410617168369532 5.392529454803405e-16 -6.08356038955275e-16 5.392529454803405e-16 0.0033788839252207738" pbc="T T T"
Si       3.18850821       3.14160376      11.47696195
Si       3.18850821       1.98390968       7.01028470
Si       1.90882363       1.88286802      10.51090310
Si       1.90882363       3.24264543       7.97634355
Si       1.99130790       0.57884704      16.25390802
Si       1.99130790       4.54666640       2.23333863
Si       3.27099249       4.44562474      17.21996688
Si       3.27099249       0.67988871       1.26727977
Si       2.43652225       4.28917083       4.18294002
Si       2.43652225       0.83634262      14.30430663
Si       2.95525019       4.26510137      15.24626175
Si       2.95525019       0.86041207       3.24098490
Si       2.74329387       1.72641410       5.06068331
Si       2.74329387       3.39909934      13.42656334
Si       2.22456593       1.70234465      12.48460823
Si       2.22456593       3.42316879       6.00263842
Si       4.59406069       2.95723370      17.56334689
Si       4.59406069       2.16827975       0.92389976
Si       0.58575543       4.73103647       8.31972356
Si       0.58575543       0.39447698      10.16752309
20
Lattice="5.230892436293551 -3.0825182494821256e-16 -4.513531549777837e-14 3.030546461219966e-16 5.142698689462815 -5.3310896040562986e-14 1.589051902540787e-13 1.9043544920696476e-13 18.416088347246898" Properties=species:S:1:pos:R:3 unique_starting_index=4 config_type=initial n_minim_iter=4 stress="0.010124754234016207 6.268136378622919e-16 5.960556214888205e-16 6.268136378622919e-16 -0.009748487591126793 -8.21558382696876e-16 5.960556214888205e-16 -8.21558382696876e-16 -0.004217275472759915" pbc="T T T"
Si       3.21510520       3.14381512      11.42880759
Si       3.21510520       1.99888357       6.98728076
Si       1.92829190       1.89092343      10.47065771
Si       1.92829190       3.25177526       7.94543064
Si       2.01578723       0.57246578      16.19532493
Si       2.01578723       4.57023291       2.22076342
Si       3.30260054       4.46227277      17.15347481
Si       3.30260054       0.68042592       1.26261353
Si       2.46188947       4.31038579       4.17147027
Si       2.46188947       0.83231290      14.24461808
Si       2.98879222       4.28220527      15.17827596
Si       2.98879222       0.86049342       3.23781239
Si       2.76900297       1.73903644       5.03657391
Si       2.76900297       3.40366224      13.37951444
Si       2.24210022       1.71085593      12.44585656
Si       2.24210022       3.43184276       5.97023179
Si       4.62920459       2.97403391      17.49721142
Si       4.62920459       2.16866478       0.91887693
Si       0.60168785       4.74001412       8.28916725
Si       0.60168785       0.40268457      10.12692110
20
Lattice="5.2057453153294135 -3.0676992754280164e-16 -4.491833087185078e-14 3.063377756497471e-16 5.198411895433505 -5.4098102959440204e-14 1.58426759315028e-13 1.8910624880026456e-13 18.360641282067544" Properties=species:S:1:pos:R:3 unique_starting_index=4 config_type=initial n_minim_iter=5 stress="-0.0013010987805433447 2.0550148559956578e-15 1.3122868597654125e-15 2.0550148559956578e-15 -0.006063174688153317 -5.022128292199457e-15 1.3122868597654125e-15 -5.022128292199457e-15 -0.0035901734255324763" pbc="T T T"
Si       3.19160694       3.16423149      11.39056260
Si       3.19160694       2.03418041       6.97007868
Si       1.91982403       1.91372994      10.44042130
Si       1.91982403       3.28468196       7.92021998
Si       2.01413837       0.56502554      16.15039932
Si       2.01413837       4.63338635       2.21024196
Si       3.28592128       4.51293589      17.10054062
Si       3.28592128       0.68547601       1.26010066
Si       2.45127875       4.36498045       4.16429202
Si       2.45127875       0.83343145      14.19634926
Si       2.98094595       4.33248779      15.12579650
Si       2.98094595       0.86592411       3.23484478
Si       2.75446656       1.76577450       5.01602862
Si       2.75446656       3.43263740      13.34461266
Si       2.22479936       1.73328184      12.41516542
Si       2.22479936       3.46513006       5.94547586
Si       4.59258544       3.01684657      17.44525671
Si       4.59258544       2.18156532       0.91538457
Si       0.61315988       4.78077127       8.26493607
Si       0.61315988       0.41764062      10.09570521
20
Lattice="5.213712803174216 -3.0723944449394547e-16 -4.498707919386353e-14 3.095844504840184e-16 5.2535064819347115 -5.484453385595536e-14 1.5836688937226357e-13 1.8839622541630803e-13 18.35370274121042" Properties=species:S:1:pos:R:3 unique_starting_index=4 config_type=initial n_minim_iter=6 stress="0.002911487710329763 1.1731356315097044e-15 -3.44078560597161e-16 1.1731356315097044e-15 0.00032975356436460015 -6.526450335537422e-15 -3.44078560597161e-16 -6.526450335537422e-15 0.004878904535846719" pbc="T T T"
Si       3.18940619       3.18434576      11.38697249
Si       3.18940619       2.06916073       6.96673025
Si       1.92341620       1.93707820      10.43612870
Si       1.92341620       3.31642829       7.91757404
Si       2.02430662       0.55759251      16.14358162
Si       2.02430662       4.69591397       2.21012112
Si       3.29029660       4.56383144      17.09442541
Si       3.29029660       0.68967505       1.25927733
Si       2.45651483       4.42253137       4.16155971
Si       2.45651483       0.83097511      14.19214303
Si       2.99227577       4.38610879      15.11814527
Si       2.99227577       0.86739769       3.23555747
Si       2.75719797       1.79577813       5.01529166
Si       2.75719797       3.45772835      13.33841108
Si       2.22143704       1.75935555      12.41240884
Si       2.22143704       3.49415093       5.94129390
Si       4.58678627       3.05546192      17.44422651
Si       4.58678627       2.19804456       0.90947624
Si       0.62692653       4.82479780       8.26737514
Si       0.62692653       0.42870868      10.08632761
20
Lattice="5.195378009808808 -3.0615899147685984e-16 -4.482887546606446e-14 3.106759406472816e-16 5.272028570621048 -5.5329316183816764e-14 1.5824157695862143e-13 1.8719330676378049e-13 18.339179839365656" Properties=species:S:1:pos:R:3 unique_starting_index=4 config_type=initial n_minim_iter=7 stress="-0.0006416967008889423 3.1785167161172117e-15 2.383556004157363e-15 3.1785167161172117e-15 0.00164380328530131 -1.0141371323435236e-14 2.383556004157363e-15 -1.0141371323435236e-14 0.003751082148720759" pbc="T T T"
Si       3.17859617       3.19253901      11.37979582
Si       3.17859617       2.07948956       6.95938402
Si       1.91474014       1.94416715      10.42496852
Si       1.91474014       3.32786142       7.91421132
Si       2.01678184       0.55652472      16.12897394
Si       2.01678184       4.71550385       2.21020590
Si       3.28063787       4.58018144      17.08380124
Si       3.28063787       0.69184714       1.25537860
Si       2.44799576       4.44277523       4.15773602
Si       2.44799576       0.82925334      14.18144382
Si       2.98761991       4.40153253      15.10411607
Si       2.98761991       0.87049604       3.23506377
Si       2.74738225       1.80676095       5.01185390
Si       2.74738225       3.46526762      13.32732594
Si       2.20775810       1.76551825      12.40465369
Si       2.20775810       3.50651032       5.93452615
Si       4.56431568       3.06891441      17.43438242
Si       4.56431568       2.20311416       0.90479742
Si       0.63106233       4.83912844       8.26479250
Si       0.63106233       0.43290013      10.07438734
20
Lattice="5.246643006391002 -3.091799919935026e-16 -4.5271220978403387e-14 3.0944725821783925e-16 5.251178391947403 -5.546788737723058e-14 1.5784006868151408e-13 1.854399259071432e-13 18.2926476153922" Properties=species:S:1:pos:R:3 unique_starting_index=4 config_type=initial n_minim_iter=8 stress="-0.0020899757422322435 3.588088406419998e-15 2.6732503268023994e-15 3.588088406419998e-15 -0.0032904051647186473 -6.811376076037963e-15 2.6732503268023994e-15 -6.811376076037963e-15 -0.011776529656305107" pbc="T T T"
Si       3.22514776       3.15617564      11.37262430
Si       3.22514776       2.09500275       6.92002332
Si       1.93236406       1.95518565      10.38753545
Si       1.93236406       3.29599274       7.90511217
Si       2.02149525       0.53058644      16.06634713
Si       2.02149525       4.72059195       2.22630049
Si       3.31427895       4.58077485      17.05143598
Si       3.31427895       0.67040355       1.24121164
Si       2.47060877       4.44926725       4.15893016
Si       2.47060877       0.80191114      14.13371745
Si       3.06645716       4.37815102      15.07453525
Si       3.06645716       0.87302737       3.21811237
Si       2.77603423       1.82367805       4.98739364
Si       2.77603423       3.42750034      13.30525397
Si       2.18018584       1.75256182      12.36443617
Si       2.18018584       3.49861657       5.92821144
Si       4.58225456       3.07037950      17.38795140
Si       4.58225456       2.18079889       0.90469621
Si       0.66438845       4.80638809       8.24162759
Si       0.66438845       0.44479030      10.05102002
20
Lattice="5.270310855542284 -3.105747172306125e-16 -4.5475441549104896e-14 3.075585371076269e-16 5.219127658845333 -5.5643256915642974e-14 1.575909834095576e-13 1.8333718595822121e-13 18.263780236254107" Properties=species:S:1:pos:R:3 unique_starting_index=4 config_type=initial n_minim_iter=9 stress="0.00418872064774544 -1.7315076171904392e-16 4.0934630142073016e-15 -1.7315076171904392e-16 0.00613381343428002 -6.6939841384426805e-15 4.0934630142073016e-15 -6.6939841384426805e-15 0.002987321218233038" pbc="T T T"
Si       3.26557327       3.09478905      11.38589274
Si       3.26557327       2.12433861       6.87788749
Si       1.94610879       1.98426668      10.35073360
Si       1.94610879       3.23486098       7.91304664
Si       2.00473759       0.48522522      16.00977761
Si       2.00473759       4.73390244       2.25400262
Si       3.32420206       4.59383050      17.04493675
Si       3.32420206       0.62529715       1.21884348
Si       2.48056522       4.45956736       4.18044074
Si       2.48056522       0.75956029      14.08333950
Si       3.16027601       4.34196217      15.06197487
Si       3.16027601       0.87716548       3.20180536
Si       2.78974563       1.85000353       4.95144938
Si       2.78974563       3.36912412      13.31233086
Si       2.11003485       1.73239834      12.33369548
Si       2.11003485       3.48672931       5.93008476
Si       4.56627071       3.06038265      17.36632812
Si       4.56627071       2.15874501       0.89745211
Si       0.70404015       4.76830884       8.23443800
Si       0.70404015       0.45081882      10.02934223
20
Lattice="5.244193682518022 -3.0903565552264336e-16 -4.525008672510296e-14 3.0886297402945433e-16 5.241263356595682 -5.627549758081894e-14 1.563932425903502e-13 1.8038027273639086e-13 18.124969787657196" Properties=species:S:1:pos:R:3 unique_starting_index=4 config_type=initial n_minim_iter=10 stress="0.017326310435229045 -1.3848077400245893e-15 2.347894278403052e-15 -1.3848077400245893e-15 0.040564717051796706 -9.461441488652071e-15 2.347894278403052e-15 -9.461441488652071e-15 0.02002884967116446" pbc="T T T"
Si       3.28377918       3.06274500      11.33959442
Si       3.28377918       2.17851836       6.78537537
Si       1.94124241       2.04295119      10.24231350
Si       1.94124241       3.19831216       7.88265628
Si       1.96041450       0.44211332      15.84786026
Si       1.96041450       4.79915004       2.27710952
Si       3.30295127       4.66358287      16.94514118
Si       3.30295127       0.57768049       1.17982861
Si       2.47085442       4.52769278       4.18356930
Si       2.47085442       0.71357058      13.94140049
Si       3.22517400       4.35965574      14.95535284
Si       3.22517400       0.88160761       3.16961695
Si       2.77333926       1.90706110       4.87891560
Si       2.77333926       3.33420226      13.24605419
Si       2.01901968       1.73902407      12.23210184
Si       2.01901968       3.50223929       5.89286794
Si       4.51019088       3.07920787      17.23076700
Si       4.51019088       2.16205548       0.89420278
Si       0.73400280       4.78268716       8.16828211
Si       0.73400280       0.45857619       9.95668768
20
Lattice="5.2320142484840675 -3.0831793233992984e-16 -4.514499517436721e-14 3.095043610766494e-16 5.252147401335605 -5.621873553679818e-14 1.5568255677867664e-13 1.8008947164027386e-13 18.042605878234603" Properties=species:S:1:pos:R:3 unique_starting_index=4 config_type=initial n_minim_iter=11 stress="0.02204467470310218 -1.4808247549335172e-15 4.555389111719533e-15 -1.4808247549335172e-15 0.04670505212455561 -7.054126936324763e-15 4.555389111719533e-15 -7.054126936324763e-15 0.041817773846679424" pbc="T T T"
Si       3.29721399       3.04581986      11.30032955
Si       3.29721399       2.20632755       6.74227632
Si       1.93520098       2.06861413      10.18077175
Si       1.93520098       3.18353327       7.86183412
Si       1.93480025       0.41974616      15.76357926
Si       1.93480025       4.83240125       2.27902662
Si       3.29681327       4.69468783      16.88313706
Si       3.29681327       0.55745957       1.15946882
Si       2.47166390       4.56378095       4.19342090
Si       2.47166390       0.68836645      13.84918498
Si       3.25044945       4.37430286      14.89646171
Si       3.25044945       0.87784454       3.14614417
Si       2.76035035       1.93770725       4.82788204
Si       2.76035035       3.31444015      13.21472384
Si       1.98156480       1.74822916      12.16744710
Si       1.98156480       3.50391824       5.87515877
Si       4.48181216       3.08779591      17.15238578
Si       4.48181216       2.16435149       0.89022009
Si       0.75020209       4.79042519       8.13108285
Si       0.75020209       0.46172221       9.91152303
20
Lattice="5.191865799409072 -3.0595202005116227e-16 -4.479856998252174e-14 3.1261686771459656e-16 5.304965214930245 -5.664074773541814e-14 1.5388177142825755e-13 1.782452829785049e-13 17.833906451520036" Properties=species:S:1:pos:R:3 unique_starting_index=4 config_type=initial n_minim_iter=12 stress="0.003929277947492477 -1.990607991314447e-15 4.6820509225708514e-15 -1.990607991314447e-15 0.045370115326538035 -1.2196344636235672e-14 4.6820509225708514e-15 -1.2196344636235672e-14 0.02701832992208097" pbc="T T T"
Si       3.28229728       3.05389535      11.17370370
Si       3.28229728       2.25106986       6.66020275
Si       1.92072286       2.10989528      10.04295360
Si       1.92072286       3.19506994       7.79095286
Si       1.90956852       0.40141274      15.57715598
Si       1.90956852       4.90355247       2.25675048
Si       3.27114294       4.76237788      16.70790608
Si       3.27114294       0.54258733       1.12600037
Si       2.46218999       4.63512831       4.17386822
Si       2.46218999       0.66983691      13.66003823
Si       3.23337406       4.42887128      14.72494117
Si       3.23337406       0.87609393       3.10896528
Si       2.72967581       1.98264570       4.74308500
Si       2.72967581       3.32231951      13.09082145
Si       1.95849174       1.77638867      12.02591851
Si       1.95849174       3.52857654       5.80798794
Si       4.43288833       3.12200347      16.94817765
Si       4.43288833       2.18296175       0.88572881
Si       0.75897747       4.83544436       8.03122442
Si       0.75897747       0.46952086       9.80268203
20
Lattice="5.236019441743885 -3.085539548058083e-16 -4.517955441326159e-14 3.1469097223661257e-16 5.340161819713251 -5.786431410152415e-14 1.5048007726606555e-13 1.708964998002224e-13 17.439672001897573" Properties=species:S:1:pos:R:3 unique_starting_index=4 config_type=initial n_minim_iter=13 stress="0.0158221580604083 4.751928654622074e-15 -9.76886088863827e-16 4.751928654622074e-15 0.05072923761423309 -1.1778790644988284e-14 -9.76886088863827e-16 -1.1778790644988284e-14 0.026886304551167146" pbc="T T T"
Si       3.34011421       3.02412052      10.95536681
Si       3.34011421       2.31604130       6.48430519
Si       1.92966893       2.16566806       9.76666583
Si       1.92966893       3.17449376       7.67300618
Si       1.89590523       0.35403961      15.20414119
Si       1.89590523       4.98612221       2.23553081
Si       3.30635051       4.83574897      16.39284218
Si       3.30635051       0.50441285       1.04682983
Si       2.49701064       4.71031365       4.14400498
Si       2.49701064       0.62984817      13.29566702
Si       3.28449217       4.47183831      14.41388314
Si       3.28449217       0.86832351       3.02578886
Si       2.73900880       2.04023274       4.57583102
Si       2.73900880       3.29992908      12.86384098
Si       1.95152727       1.80175740      11.74562486
Si       1.95152727       3.53840442       5.69404714
Si       4.43862674       3.15138214      16.56107096
Si       4.43862674       2.18877968       0.87860104
Si       0.79739270       4.85886059       7.84123496
Si       0.79739270       0.48130123       9.59843705
20
Lattice="5.279655644256861 -3.1112539729334766e-16 -4.555607405908971e-14 3.149216659576668e-16 5.34407658661145 -5.90224156498755e-14 1.4751789563085976e-13 1.6310250007205267e-13 17.09637422409538" Properties=species:S:1:pos:R:3 unique_starting_index=4 config_type=initial n_minim_iter=14 stress="0.03378397720742691 1.6814265026370593e-15 1.2116144639664827e-15 1.6814265026370593e-15 0.07354968992583757 -5.107227991720806e-15 1.2116144639664827e-15 -5.107227991720806e-15 0.07176363649295228" pbc="T T T"
Si       3.39738866       2.97052076      10.76125656
Si       3.39738866       2.37355583       6.33511767
Si       1.95057286       2.21774078       9.52840691
Si       1.95057286       3.12633581       7.56796731
Si       1.88226698       0.29848246      14.88330478
Si       1.88226698       5.04559412       2.21306944
Si       3.32908278       4.88977907      16.11615442
Si       3.32908278       0.45429751       0.98021980
Si       2.53158607       4.77643587       4.10940521
Si       2.53158607       0.56764072      12.98696901
Si       3.37306342       4.47986970      14.14449774
Si       3.37306342       0.86420689       2.95187648
Si       2.74806958       2.10439758       4.43878190
Si       2.74806958       3.23967901      12.65759232
Si       1.90659222       1.80783140      11.50006359
Si       1.90659222       3.53624518       5.59631063
Si       4.42629319       3.17902695      16.22534906
Si       4.42629319       2.16504964       0.87102516
Si       0.85336245       4.83708793       7.67716195
Si       0.85336245       0.50698866       9.41921227
20
Lattice="5.316122369419417 -3.1327434887631075e-16 -4.5870731101927454e-14 3.1418637837032933e-16 5.331599092667487 -6.01851445459735e-14 1.456607237607318e-13 1.5610044927309294e-13 16.88113996282699" Properties=species:S:1:pos:R:3 unique_starting_index=4 config_type=initial n_minim_iter=15 stress="0.03669448713466512 1.4293438478319067e-15 1.7949461043643982e-15 1.4293438478319067e-15 0.064684022937104 -5.627345291821331e-15 1.7949461043643982e-15 -5.627345291821331e-15 0.06394496352063699" pbc="T T T"
Si       3.43177987       2.93660590      10.63172314
Si       3.43177987       2.39499320       6.24941682
Si       1.96831015       2.23592611       9.38075252
Si       1.96831015       3.09567299       7.50038744
Si       1.88434250       0.27080635      14.68998680
Si       1.88434250       5.06079274       2.19115316
Si       3.34781222       4.90172565      15.94095742
Si       3.34781222       0.42987344       0.94018254
Si       2.55741813       4.79491997       4.08211062
Si       2.55741813       0.53667912      12.79902934
Si       3.41665638       4.47087508      13.97516895
Si       3.41665638       0.86072401       2.90597101
Si       2.75870424       2.12912043       4.35845936
Si       2.75870424       3.20247867      12.52268060
Si       1.89946599       1.80507553      11.34654099
Si       1.89946599       3.52652356       5.53459897
Si       4.43216189       3.18677404      16.01507201
Si       4.43216189       2.14482505       0.86606796
Si       0.88396048       4.81062460       7.57450203
Si       0.88396048       0.52097449       9.30663794
20
Lattice="5.3501548771276966 -3.1527985419618973e-16 -4.616438423881055e-14 3.1177355806680296e-16 5.290654636043825 -6.086181161607223e-14 1.4550068309728225e-13 1.520231905035083e-13 16.862592280449334" Properties=species:S:1:pos:R:3 unique_starting_index=4 config_type=initial n_minim_iter=16 stress="0.01263299357493628 2.326932614415747e-15 3.0604083374248695e-15 2.326932614415747e-15 0.0018537224232165598 -1.0874758148918376e-14 3.0604083374248695e-15 -1.0874758148918376e-14 0.024550549561132253" pbc="T T T"
Si       3.44348080       2.92044300      10.60814589
Si       3.44348080       2.37021164       6.25444639
Si       1.98773181       2.20842671       9.37165999
Si       1.98773181       3.08222793       7.49093229
Si       1.90667408       0.27511568      14.68574253
Si       1.90667408       5.01553896       2.17684975
Si       3.36242307       4.85375403      15.92222843
Si       3.36242307       0.43690061       0.94036385
Si       2.57561388       4.75597765       4.07092908
Si       2.57561388       0.53467699      12.79166320
Si       3.42031629       4.43301766      13.96135226
Si       3.42031629       0.85763698       2.90124002
Si       2.77454100       2.11065033       4.36036706
Si       2.77454100       3.18000431      12.50222522
Si       1.92983858       1.78769034      11.33253616
Si       1.92983858       3.50296430       5.53005612
Si       4.46085554       3.17128098      15.99588571
Si       4.46085554       2.11937365       0.86670657
Si       0.88929934       4.76470097       7.56458957
Si       0.88929934       0.52595366       9.29800271
20
Lattice="5.396030800196565 -3.1798328141809545e-16 -4.656022955329286e-14 3.1054385666787536e-16 5.2697871659237885 -6.12020648671715e-14 1.4529211581475913e-13 1.498238401309826e-13 16.83842067538633" Properties=species:S:1:pos:R:3 unique_starting_index=4 config_type=initial n_minim_iter=17 stress="-0.0012378733338913395 1.3522559293533736e-15 4.024639536652194e-15 1.3522559293533736e-15 -0.028821704523300407 -6.4566046997212e-15 4.024639536652194e-15 -6.4566046997212e-15 0.02749891585670445" pbc="T T T"
Si       3.45255224       2.89086201      10.59765808
Si       3.45255224       2.37892516       6.24076260
Si       2.01796881       2.20188348       9.34633396
Si       2.01796881       3.06790369       7.49208671
Si       1.94347856       0.25596842      14.65997293
Si       1.94347856       5.01381874       2.17844774
Si       3.37806199       4.83677706      15.91129705
Si       3.37806199       0.43301010       0.92712362
Si       2.58641441       4.74267342       4.06753780
Si       2.58641441       0.52711374      12.77088288
Si       3.45833572       4.40293671      13.94564838
Si       3.45833572       0.86685046       2.89277230
Si       2.80961639       2.10777984       4.35167254
Si       2.80961639       3.16200733      12.48674814
Si       1.93769508       1.76804312      11.31198264
Si       1.93769508       3.50174404       5.52643804
Si       4.47422897       3.16878024      15.97835339
Si       4.47422897       2.10100693       0.86006728
Si       0.92180183       4.73590051       7.55914306
Si       0.92180183       0.53388666       9.27927762
20
Lattice="5.382338655844927 -3.171764155658094e-16 -4.644208541960733e-14 3.119718536332982e-16 5.294019621082322 -6.332734295801112e-14 1.4540118437846921e-13 1.431208778347399e-13 16.851061019608434" Properties=species:S:1:pos:R:3 unique_starting_index=4 config_type=initial n_minim_iter=18 stress="-0.011488265249536535 6.721812331617873e-15 2.461588324986227e-15 6.721812331617873e-15 -0.00891420366980971 -1.0079134579049731e-14 2.461588324986227e-15 -1.0079134579049731e-14 0.007537961223036026" pbc="T T T"
Si       3.43765484       2.90622391      10.60309830
Si       3.43765484       2.38779571       6.24796272
Si       2.01573030       2.20712360       9.35665170
Si       2.01573030       3.08689602       7.49440932
Si       1.94468381       0.25921410      14.67349323
Si       1.94468381       5.03480552       2.17756779
Si       3.36660836       4.85413341      15.91993983
Si       3.36660836       0.43988621       0.93112119
Si       2.57835582       4.76043343       4.06324784
Si       2.57835582       0.53358619      12.78781318
Si       3.44017477       4.42215782      13.95533322
Si       3.44017477       0.87186180       2.89572780
Si       2.80398283       2.11342362       4.36228267
Si       2.80398283       3.18059600      12.48877835
Si       1.94216389       1.77514801      11.32125831
Si       1.94216389       3.51887161       5.52980271
Si       4.46234873       3.17585355      15.99083693
Si       4.46234873       2.11816607       0.86022409
Si       0.91998992       4.76517588       7.56530642
Si       0.91998992       0.52884374       9.28575460
20
Lattice="5.3911467636769 -3.176954695028966e-16 -4.651808712117724e-14 3.1135843575149225e-16 5.2836102002825225 -6.422317229210152e-14 1.4524429053552588e-13 1.3934664270684463e-13 16.832878033459487" Properties=species:S:1:pos:R:3 unique_starting_index=4 config_type=initial n_minim_iter=19 stress="0.010609027647803321 3.5352658630946882e-15 4.579284193489047e-16 3.5352658630946882e-15 0.009941929787678041 -1.425035383012179e-14 4.579284193489047e-16 -1.425035383012179e-14 -0.007101935113814626" pbc="T T T"
Si       3.45454291       2.89594243      10.59120083
Si       3.45454291       2.38766777       6.24167720
Si       2.02341030       2.20359845       9.34681551
Si       2.02341030       3.08001175       7.48606252
Si       1.93660385       0.25413733      14.65811622
Si       1.93660385       5.02947287       2.17476181
Si       3.36773646       4.84540355      15.90250154
Si       3.36773646       0.43820665       0.93037650
Si       2.58695211       4.75224198       4.05676159
Si       2.58695211       0.53136822      12.77611645
Si       3.44593099       4.40842279      13.94477272
Si       3.44593099       0.87518741       2.88810531
Si       2.80419465       2.11043688       4.35967743
Si       2.80419465       3.17317332      12.47320060
Si       1.94521578       1.76661769      11.30454433
Si       1.94521578       3.51699251       5.52833371
Si       4.46455823       3.15968204      15.97107699
Si       4.46455823       2.12392817       0.86180104
Si       0.92658853       4.76573327       7.55463798
Si       0.92658853       0.51787694       9.27824006
20
Lattice="5.368658418974741 -3.1637025141078115e-16 -4.6324044030927086e-14 3.1176557954460696e-16 5.290519244173766 -6.90870102998283e-14 1.4514623883650603e-13 1.2191109837324634e-13 16.82151447290986" Properties=species:S:1:pos:R:3 unique_starting_index=4 config_type=initial n_minim_iter=20 stress="-0.020128411319903453 4.227052470591957e-15 3.5445801982524164e-15 4.227052470591957e-15 -0.017934239964463774 -2.933608340689477e-14 3.5445801982524164e-15 -2.933608340689477e-14 -0.03508910559732317" pbc="T T T"
Si       3.46675344       2.86495664      10.58830858
Si       3.46675344       2.42556260       6.23320589
Si       2.04711947       2.19901733       9.33795822
Si       2.04711947       3.09150192       7.48355625
Si       1.90190498       0.21969702      14.64396313
Si       1.90190498       5.07082222       2.17755135
Si       3.32153895       4.84427695      15.89431349
Si       3.32153895       0.44624229       0.92720098
Si       2.59594529       4.77773015       4.04648096
Si       2.59594529       0.51278909      12.77503351
Si       3.42289801       4.39107164      13.94505256
Si       3.42289801       0.89944760       2.87646191
Si       2.77271313       2.13247053       4.36427628
Si       2.77271313       3.15804871      12.45723820
Si       1.94576041       1.74581202      11.28721915
Si       1.94576041       3.54470722       5.53429532
Si       4.40282280       3.15507038      15.95967301
Si       4.40282280       2.13544886       0.86184146
Si       0.96583561       4.78070849       7.54891577
Si       0.96583561       0.50981076       9.27259870
20
Lattice="5.411888513787268 -3.1891776233379866e-16 -4.6697059532999246e-14 3.107458963512839e-16 5.273215686914353 -7.153184315727762e-14 1.4588374333255404e-13 1.1380917794398018e-13 16.9069864951552" Properties=species:S:1:pos:R:3 unique_starting_index=4 config_type=initial n_minim_iter=21 stress="0.010675989529178514 9.162415794439396e-15 8.673679986222483e-16 9.162415794439396e-15 -0.018290237677069113 -2.038930318554647e-14 8.673679986222483e-16 -2.038930318554647e-14 0.04981770704515005" pbc="T T T"
Si       3.59566281       2.73554630      10.68832614
Si       3.59566281       2.53766939       6.21866035
Si       2.16709359       2.16962231       9.38015108
Si       2.16709359       3.10359338       7.52683542
Si       1.81622570       0.09893846      14.67215360
Si       1.81622570       5.17427723       2.23483289
Si       3.24479493       4.80623015      15.98032867
Si       3.24479493       0.46698553       0.92665783
Si       2.66469054       4.79524946       4.04376802
Si       2.66469054       0.47796622      12.86321848
Si       3.39264508       4.28243982      14.04137192
Si       3.39264508       0.99077586       2.86561458
Si       2.74719798       2.15864162       4.40972523
Si       2.74719798       3.11457407      12.49726126
Si       2.01924344       1.64583198      11.31910783
Si       2.01924344       3.62738371       5.58787867
Si       4.31529551       3.11724323      16.02437286
Si       4.31529551       2.15597246       0.88261364
Si       1.09659300       4.79258030       7.57087961
Si       1.09659300       0.48063538       9.33610688
