17
cutoff=-1.00000000 nneightol=1.20000000 pbc="T T T" Lattice="2.15443469       2.15443469       0.00000000       2.15443469       0.00000000       2.15443469       0.00000000      25.23547752      25.23547752" Properties=species:S:1:pos:R:3:Z:I:1 bulk_struct_test="bulk_SiC_zincblende" supercell_a1_in_bulk_lattice_coords="0 1 0"
C               0.00000000      0.00000000      0.00000000       6
Si              1.07721735      1.07721735      1.07721735      14
C               0.00000000      2.15443469      2.15443469       6
Si              1.07721735      3.23165204      3.23165204      14
C               0.00000000      4.30886938      4.30886938       6
Si              1.07721735      5.38608673      5.38608673      14
C               0.00000000      6.46330407      6.46330407       6
Si              1.07721735      7.54052142      7.54052142      14
C               0.00000000      8.61773876      8.61773876       6
Si              1.07721735      9.69495611      9.69495611      14
C               0.00000000     10.77217345     10.77217345       6
Si              1.07721735     11.84939080     11.84939080      14
C               0.00000000     12.92660814     12.92660814       6
Si              1.07721735     14.00382549     14.00382549      14
C               0.00000000     15.08104283     15.08104283       6
Si              1.07721735     16.15826018     16.15826018      14
C               1.07721735   17.45 17.45 6
