16
Lattice="6.781583465837161 -0.4366115117336143 -0.37763303819062605 0.7114732773681819 6.758277124525569 -0.3776330381901522 0.7114732773685999 0.6002485108679563 6.74215233650342" Properties=species:S:1:pos:R:3 unique_starting_index=52 config_type=initial n_minim_iter=1 energy=-2603.8833135120894 free_energy=-2603.8833135120894 pbc="T T T"
Si       4.21486659       1.70340810       2.47700488
Si       3.36780774       3.70064516       1.32866444
Si       2.38876797       3.00855139       3.47054158
Si       0.64406208       2.17579600       1.88990282
Si       2.26099754       0.26718046       1.88072901
Si       2.25317623       1.90887131      -0.00664156
Si       5.72937539       5.13681543       6.60810477
Si       8.14015354       4.42190620       4.13089697
Si       6.02816231       7.22835939       3.78044226
Si       6.68650667       5.35913715       2.61716603
Si       4.43999670       6.02493913       4.92603474
Si       6.40846721       3.40964870       5.25215425
Si       7.06750900       1.20833404       5.51800625
Si       6.74409029       6.01788830       0.40051751
Si       2.38107667       6.43504922       5.89735221
Si       4.78389892       4.03603101       3.49083477
16
Lattice="6.78114018195666 -0.4367292330974945 -0.37773485748559743 0.7112825986529141 6.757859990799089 -0.37773485748512586 0.7112825986533305 0.6000876409961933 6.741754230237511" Properties=species:S:1:pos:R:3 unique_starting_index=52 config_type=initial n_minim_iter=2 stress="-8.102610532109122e-05 7.029174628147904e-06 6.079657772345269e-06 7.029174628147904e-06 -8.342746870163963e-05 5.129223599488731e-06 6.079657772345269e-06 5.129223599488731e-06 -8.49214145496809e-05" pbc="T T T"
Si       4.21448341       1.70318049       2.47675565
Si       3.36746778       3.70031450       1.32847512
Si       2.38847909       3.00825585       3.47024166
Si       0.64393811       2.17557203       1.88978280
Si       2.26082777       0.26708368       1.88052467
Si       2.25293458       1.90874037      -0.00670788
Si       5.72872520       5.13624401       6.60754567
Si       8.13941753       4.42137230       4.13041208
Si       6.02748956       7.22772763       3.77998382
Si       6.68588117       5.35861749       2.61683128
Si       4.43949104       6.02439093       4.92556875
Si       6.40784965       3.40924120       5.25167893
Si       7.06690940       1.20805129       5.51754673
Si       6.74350094       6.01738068       0.40030393
Si       2.38069700       6.43451618       5.89688067
Si       4.78343121       4.03563641       3.49049348
16
Lattice="6.781217530517136 -0.43774177952125537 -0.3786106268412669 0.7102975319840962 6.758106722876537 -0.3786106268408075 0.7102975319845023 0.5992565700060788 6.742124594506525" Properties=species:S:1:pos:R:3 unique_starting_index=52 config_type=initial n_minim_iter=3 stress="-1.2551311034144418e-05 -9.79954837305589e-05 -8.475803146628703e-05 -9.79954837305589e-05 2.0926697213805986e-05 -7.150779065061279e-05 -8.475803146628703e-05 -7.150779065061279e-05 4.175417038242342e-05" pbc="T T T"
Si       4.21378089       1.70239890       2.47616997
Si       3.36666717       3.69973856       1.32778609
Si       2.38759037       3.00759545       3.46977102
Si       0.64337630       2.17495147       1.88988986
Si       2.26074945       0.26652711       1.87989516
Si       2.25222828       1.90878156      -0.00716792
Si       5.72686311       5.13463236       6.60676513
Si       8.13811369       4.41970597       4.12892974
Si       6.02558739       7.22672982       3.77854850
Si       6.68465092       5.35749269       2.61576321
Si       4.43808229       6.02338350       4.92460961
Si       6.40653376       3.40803682       5.25082024
Si       7.06607180       1.20672558       5.51693536
Si       6.74257523       6.01668908       0.39908017
Si       2.37924919       6.43382437       5.89637264
Si       4.78243816       4.03479860       3.48976884
16
Lattice="6.7816614431102336 -0.4370854581668658 -0.378042962864386 0.7110192269356032 6.75843378939508 -0.37804296286396727 0.7110192269359746 0.5998654422346319 6.742366440547429" Properties=species:S:1:pos:R:3 unique_starting_index=52 config_type=initial n_minim_iter=4 stress="-1.7757739651686968e-05 2.0512176483939875e-05 1.7741345149147695e-05 2.0512176483939875e-05 -2.4765274971878625e-05 1.496783694525979e-05 1.7741345149147695e-05 1.496783694525979e-05 -2.9124831036433836e-05" pbc="T T T"
Si       4.21421292       1.70328325       2.47661308
Si       3.36729776       3.70006913       1.32859736
Si       2.38853484       3.00807385       3.46998123
Si       0.64390849       2.17382314       1.89111343
Si       2.26187229       0.26687521       1.87860228
Si       2.25120567       1.91009533      -0.00663713
Si       5.72781782       5.13512536       6.60789440
Si       8.13944601       4.42044692       4.12925485
Si       6.02623410       7.22797097       3.77923486
Si       6.68586290       5.35841953       2.61746336
Si       4.44007639       6.02427241       4.92528176
Si       6.40765143       3.40986889       5.25160301
Si       7.06765364       1.20891144       5.51795369
Si       6.74414539       6.01802562       0.40109646
Si       2.38167019       6.43500374       5.89740467
Si       4.78388445       4.03601880       3.49082421
16
Lattice="6.781722598634125 -0.43789492235427424 -0.37874308279292396 0.7102316165821048 6.758630365588574 -0.3787430827925142 0.7102316165824688 0.599200959172697 6.742661859528858" Properties=species:S:1:pos:R:3 unique_starting_index=52 config_type=initial n_minim_iter=5 stress="5.3024396797762385e-05 -7.017274706350484e-05 -6.069365318922106e-05 -7.017274706350484e-05 7.699737713861269e-05 -5.120540167109009e-05 -6.069365318922106e-05 -5.120540167109009e-05 9.191154410838241e-05" pbc="T T T"
Si       4.21369640       1.70262873       2.47611804
Si       3.36663493       3.69965835       1.32802101
Si       2.38780269       3.00752648       3.46965779
Si       0.64308222       2.17283517       1.89177182
Si       2.26223504       0.26597502       1.87752974
Si       2.25009268       1.91065345      -0.00737336
Si       5.72660438       5.13429439       6.60761846
Si       8.13885448       4.41931695       4.12847232
Si       6.02521068       7.22754569       3.77822946
Si       6.68470075       5.35771569       2.61632146
Si       4.43866689       6.02333420       4.92474983
Si       6.40676197       3.40859091       5.25075124
Si       7.06681979       1.20741162       5.51786957
Si       6.74370989       6.01725409       0.39962441
Si       2.38005137       6.43483844       5.89685333
Si       4.78297923       4.03525509       3.49016366
