16
Lattice="6.914181486662779 2.974173810642169e-32 9.759891940145681e-33 -2.986414921898031e-32 6.942638890368844 -5.242570722660128e-16 -1.0850340341298908e-32 5.80442023718543e-16 7.686685751428444" Properties=species:S:1:pos:R:3 unique_starting_index=48 config_type=initial n_minim_iter=1 energy=-2601.569973537286 free_energy=-2601.569973537286 pbc="T T T"
Si       4.45495512       3.96231486       4.65672198
Si       2.45922636       2.98032403       4.65672198
Si       2.45922636       3.96231486       0.81337911
Si       4.45495512       2.98032403       0.81337911
Si       4.04547103       6.05997606       4.94318930
Si       2.86871045       0.88266284       4.94318930
Si       2.86871045       6.05997606       1.09984643
Si       4.04547103       0.88266284       1.09984643
Si       5.66566587       4.46063175       6.97518144
Si       1.24851561       2.48200714       6.97518144
Si       1.24851561       4.46063175       3.13183856
Si       5.66566587       2.48200714       3.13183856
Si       2.79709980       6.11009338       3.22348609
Si       4.11708169       0.83254551       3.22348609
Si       4.11708169       6.11009338       7.06682896
Si       2.79709980       0.83254551       7.06682896
16
Lattice="6.1944895300602925 2.728994902050229e-32 8.876130942882217e-33 -2.993485846451479e-32 7.107066537301809 -5.273531153676351e-16 -1.0881296101289096e-32 6.002471927698907e-16 7.810731898115494" Properties=species:S:1:pos:R:3 unique_starting_index=48 config_type=initial n_minim_iter=2 stress="-0.005904764492082797 3.181846488439686e-16 2.6507315748442233e-15 3.181846488439686e-16 -0.0027834715132215348 6.142529623801626e-17 2.6507315748442233e-15 6.142529623801626e-17 0.010777105741499565" pbc="T T T"
Si       4.04679129       4.12502583       4.75720658
Si       2.14769824       2.98204071       4.75720658
Si       2.14769824       4.12502583       0.85184064
Si       4.04679129       2.98204071       0.85184064
Si       3.64799592       6.20302186       5.03749379
Si       2.54649361       0.90404467       5.03749379
Si       2.54649361       6.20302186       1.13212784
Si       3.64799592       0.90404467       1.13212784
Si       5.07992203       4.50418658       7.06536463
Si       1.11456750       2.60287996       7.06536463
Si       1.11456750       4.50418658       3.15999868
Si       5.07992203       2.60287996       3.15999868
Si       2.49458336       6.23118380       3.25801917
Si       3.69990617       0.87588274       3.25801917
Si       3.69990617       6.23118380       7.16338512
Si       2.49458336       0.87588274       7.16338512
16
Lattice="6.140841601907101 2.8764227639442767e-32 8.979259482068598e-33 -2.8324358000515276e-32 7.134575005864334 -5.188255404084032e-16 -1.0642877594699703e-32 6.111680070521402e-16 7.782137525948006" Properties=species:S:1:pos:R:3 unique_starting_index=48 config_type=initial n_minim_iter=3 stress="-0.0020647063616552755 -3.449977686291031e-16 5.862031457994742e-15 -3.449977686291031e-16 0.019723147075611368 2.01479348125774e-17 5.862031457994742e-15 2.01479348125774e-17 -0.05227379681241822" pbc="T T T"
Si       4.01891957       4.14846934       4.74282424
Si       2.12192203       2.98610566       4.74282424
Si       2.12192203       4.14846934       0.85175548
Si       4.01891957       2.98610566       0.85175548
Si       3.61995390       6.22721954       5.02214586
Si       2.52088770       0.90735546       5.02214586
Si       2.52088770       6.22721954       1.13107710
Si       3.61995390       0.90735546       1.13107710
Si       5.03716810       4.51292873       7.03667947
Si       1.10367350       2.62164627       7.03667947
Si       1.10367350       4.51292873       3.14561071
Si       5.03716810       2.62164627       3.14561071
Si       2.47205095       6.25357706       3.24278414
Si       3.66879065       0.88099794       3.24278414
Si       3.66879065       6.25357706       7.13385291
Si       2.47205095       0.88099794       7.13385291
16
Lattice="5.983159501666536 2.9196867951037895e-32 9.002204200855514e-33 -2.741295488706779e-32 7.166069462706446 -5.473214704972502e-16 -1.048386587504419e-32 5.87537362770237e-16 7.853684710957896" Properties=species:S:1:pos:R:3 unique_starting_index=48 config_type=initial n_minim_iter=4 stress="0.02596083485005483 -1.0567036489194739e-16 1.8855813317224556e-15 -1.0567036489194739e-16 0.002047379861267845 4.2029110029956295e-16 1.8855813317224556e-15 4.2029110029956295e-16 0.007889368858300036" pbc="T T T"
Si       3.94135170       4.19223341       4.79737922
Si       2.04180780       2.97383605       4.79737922
Si       2.04180780       4.19223341       0.87053687
Si       3.94135170       2.97383605       0.87053687
Si       3.54014030       6.25724124       5.07940310
Si       2.44301920       0.90882822       5.07940310
Si       2.44301920       6.25724124       1.15256074
Si       3.54014030       0.90882822       1.15256074
Si       4.91327465       4.49988139       7.09098902
Si       1.06988485       2.66618807       7.09098902
Si       1.06988485       4.49988139       3.16414666
Si       4.91327465       2.66618807       3.16414666
Si       2.40585073       6.27743401       3.26094630
Si       3.57730878       0.88863545       3.26094630
Si       3.57730878       6.27743401       7.18778866
Si       2.40585073       0.88863545       7.18778866
16
Lattice="5.748556461965086 2.973409050406358e-32 9.086738872472652e-33 -2.607071623795082e-32 7.184102620967138 -4.710959620087804e-16 -1.0076810644810803e-32 6.749374509858608e-16 7.873476747854588" Properties=species:S:1:pos:R:3 unique_starting_index=48 config_type=initial n_minim_iter=5 stress="-0.007294120265045402 3.8923976635520785e-17 2.698046169946362e-15 3.8923976635520785e-17 -0.06766078854583686 1.7724920500802391e-16 2.698046169946362e-15 1.7724920500802391e-16 -0.011495817565762024" pbc="T T T"
Si       3.81141301       4.22303236       4.82004242
Si       1.93714346       2.96107026       4.82004242
Si       1.93714346       4.22303236       0.88330404
Si       3.81141301       2.96107026       0.88330404
Si       3.41134197       6.28177153       5.09671667
Si       2.33721449       0.90233109       5.09671667
Si       2.33721449       6.28177153       1.15997829
Si       3.41134197       0.90233109       1.15997829
Si       4.72696296       4.47678499       7.09829933
Si       1.02159350       2.70731764       7.09829933
Si       1.02159350       4.47678499       3.16156096
Si       4.72696296       2.70731764       3.16156096
Si       2.31177727       6.29199911       3.26463753
Si       3.43677919       0.89210352       3.26463753
Si       3.43677919       6.29199911       7.20137590
Si       2.31177727       0.89210352       7.20137590
16
Lattice="5.525167407099437 3.174274795759606e-32 9.438451406234348e-33 -2.395814054633226e-32 7.326700336574671 -5.295460251133635e-16 -9.473276273363235e-33 6.271553748531589e-16 7.937218416280128" Properties=species:S:1:pos:R:3 unique_starting_index=48 config_type=initial n_minim_iter=6 stress="0.007046854609854139 -8.900899279541132e-16 3.3499308429794746e-15 -8.900899279541132e-16 0.01080148838268622 3.079984120846652e-16 3.3499308429794746e-15 3.079984120846652e-16 -0.005644582609259247" pbc="T T T"
Si       3.68971216       4.32744413       4.87070379
Si       1.83545525       2.99925620       4.87070379
Si       1.83545525       4.32744413       0.90209459
Si       3.68971216       2.99925620       0.90209459
Si       3.28938768       6.41770419       5.14133062
Si       2.23577972       0.90899614       5.14133062
Si       2.23577972       6.41770419       1.17272141
Si       3.28938768       0.90899614       1.17272141
Si       4.55038113       4.52637029       7.14384311
Si       0.97478627       2.80033005       7.14384311
Si       0.97478627       4.52637029       3.17523390
Si       4.55038113       2.80033005       3.17523390
Si       2.22205055       6.41423811       3.28799769
Si       3.30311686       0.91246222       3.28799769
Si       3.30311686       6.41423811       7.25660690
Si       2.22205055       0.91246222       7.25660690
16
Lattice="5.38982285309734 3.498088880841961e-32 1.0079565128415564e-32 -2.0623262265278477e-32 7.391931779942047 -6.391304347807808e-16 -8.623621847204436e-33 5.126511503014664e-16 7.95966360613088" Properties=species:S:1:pos:R:3 unique_starting_index=48 config_type=initial n_minim_iter=7 stress="-0.006762726533818078 5.017703844954087e-16 6.8462380980289294e-15 5.017703844954087e-16 0.027494111585137204 2.298796293174936e-16 6.8462380980289294e-15 2.298796293174936e-16 0.03031381908540193" pbc="T T T"
Si       3.62404084       4.38710280       4.89630757
Si       1.76578201       3.00482898       4.89630757
Si       1.76578201       4.38710280       0.91647576
Si       3.62404084       3.00482898       0.91647576
Si       3.22146801       6.47702355       5.14941832
Si       2.16835484       0.91490823       5.14941832
Si       2.16835484       6.47702355       1.16958652
Si       3.22146801       0.91490823       1.16958652
Si       4.44732082       4.52767152       7.15169973
Si       0.94250203       2.86426026       7.15169973
Si       0.94250203       4.52767152       3.17186793
Si       4.44732082       2.86426026       3.17186793
Si       2.16732711       6.46318870       3.30426162
Si       3.22249575       0.92874308       3.30426162
Si       3.22249575       6.46318870       7.28409342
Si       2.16732711       0.92874308       7.28409342
16
Lattice="5.60978569649207 3.7627104429792893e-32 1.0830534332742887e-32 -1.7920691006170913e-32 7.280357045082454 -6.959379237135527e-16 -7.916395123971914e-33 4.3544641822906876e-16 7.885867524456342" Properties=species:S:1:pos:R:3 unique_starting_index=48 config_type=initial n_minim_iter=8 stress="-0.016009589508822638 4.059034280741999e-16 4.668320318212189e-16 4.059034280741999e-16 -0.002787910657675098 -1.8825818229895745e-16 4.668320318212189e-16 -1.8825818229895745e-16 -0.0072988620314296026" pbc="T T T"
Si       3.76791694       4.30334374       4.84786249
Si       1.84186876       2.97701331       4.84786249
Si       1.84186876       4.30334374       0.90492872
Si       3.76791694       2.97701331       0.90492872
Si       3.35418175       6.38473970       5.09281076
Si       2.25560394       0.89561735       5.09281076
Si       2.25560394       6.38473970       1.14987700
Si       3.35418175       0.89561735       1.14987700
Si       4.63251561       4.46212292       7.08589094
Si       0.97727009       2.81823413       7.08589094
Si       0.97727009       4.46212292       3.14295718
Si       4.63251561       2.81823413       3.14295718
Si       2.25882275       6.36990885       3.28504666
Si       3.35096295       0.91044819       3.28504666
Si       3.35096295       6.36990885       7.22798042
Si       2.25882275       0.91044819       7.22798042
16
Lattice="5.755209383652377 3.8491216817936655e-32 1.1245079574853558e-32 -1.649418877546513e-32 7.124366247984034 -6.954160663083332e-16 -7.516728803483622e-33 4.212948502600544e-16 7.8306580354352535" Properties=species:S:1:pos:R:3 unique_starting_index=48 config_type=initial n_minim_iter=9 stress="-0.0021353349918447244 2.664263947762705e-16 6.6582393830168416e-15 2.664263947762705e-16 -0.01319043578442621 1.8132036438780902e-16 6.6582393830168416e-15 1.8132036438780902e-16 -0.033182466695733194" pbc="T T T"
Si       3.87007354       4.18648968       4.81660608
Si       1.88513585       2.93787657       4.81660608
Si       1.88513585       4.18648968       0.90127706
Si       3.87007354       2.93787657       0.90127706
Si       3.45437595       6.26497069       5.05955682
Si       2.30083343       0.85939556       5.05955682
Si       2.30083343       6.26497069       1.14422780
Si       3.45437595       0.85939556       1.14422780
Si       4.76440709       4.34799972       7.02952523
Si       0.99080230       2.77636653       7.02952523
Si       0.99080230       4.34799972       3.11419621
Si       4.76440709       2.77636653       3.11419621
Si       2.31512844       6.22025745       3.26371977
Si       3.44008095       0.90410880       3.26371977
Si       3.44008095       6.22025745       7.17904878
Si       2.31512844       0.90410880       7.17904878
16
Lattice="5.838146531273546 3.8861824870582204e-32 1.1538074904834844e-32 -1.5873250518286897e-32 7.049825969528492 -6.927485175666497e-16 -7.271260051244689e-33 4.195407831924151e-16 7.8268287463910795" Properties=species:S:1:pos:R:3 unique_starting_index=48 config_type=initial n_minim_iter=10 stress="-0.002624654854379633 5.055930843318087e-16 4.764361825359866e-15 5.055930843318087e-16 -0.038674493199643355 1.0335018825085286e-16 4.764361825359866e-15 1.0335018825085286e-16 0.015032986950409914" pbc="T T T"
Si       3.92781107       4.11359378       4.81848393
Si       1.91033546       2.93623219       4.81848393
Si       1.91033546       4.11359378       0.90506956
Si       3.92781107       2.93623219       0.90506956
Si       3.52659902       6.20439040       5.05512690
Si       2.31154751       0.84543557       5.05512690
Si       2.31154751       6.20439040       1.14171253
Si       3.52659902       0.84543557       1.14171253
Si       4.84733791       4.28170042       7.01873308
Si       0.99080862       2.76812555       7.01873308
Si       0.99080862       4.28170042       3.10531871
Si       4.84733791       2.76812555       3.10531871
Si       2.35628765       6.15614914       3.26720088
Si       3.48185888       0.89367683       3.26720088
Si       3.48185888       6.15614914       7.18061525
Si       2.35628765       0.89367683       7.18061525
16
Lattice="5.854386040572153 3.9095733551657034e-32 1.179984677179349e-32 -1.53747043612013e-32 6.999329098658416 -6.702433127070466e-16 -6.925423627171823e-33 4.376089122915595e-16 7.787642179501395" Properties=species:S:1:pos:R:3 unique_starting_index=48 config_type=initial n_minim_iter=11 stress="0.00508494194381608 7.363507668338795e-16 4.734702379325427e-15 7.363507668338795e-16 -0.007525358534667798 -9.697981396406516e-17 4.734702379325427e-15 -9.697981396406516e-17 0.033821643414887345" pbc="T T T"
Si       3.93822174       4.05379802       4.80921228
Si       1.91616430       2.94553108       4.80921228
Si       1.91616430       4.05379802       0.91539119
Si       3.93822174       2.94553108       0.91539119
Si       3.57705995       6.16387802       5.01982536
Si       2.27732609       0.83545108       5.01982536
Si       2.27732609       6.16387802       1.12600427
Si       3.57705995       0.83545108       1.12600427
Si       4.88469710       4.21128144       6.96985595
Si       0.96968894       2.78804766       6.96985595
Si       0.96968894       4.21128144       3.07603487
Si       4.88469710       2.78804766       3.07603487
Si       2.36889475       6.09108208       3.25971845
Si       3.48549129       0.90824702       3.25971845
Si       3.48549129       6.09108208       7.15353954
Si       2.36889475       0.90824702       7.15353954
16
Lattice="5.805831873765977 3.9581780754584114e-32 1.1998634758960846e-32 -1.4960559564208846e-32 7.030027575956943 -6.690049673773478e-16 -6.661483256910983e-33 4.411858512197046e-16 7.7905566193251214" Properties=species:S:1:pos:R:3 unique_starting_index=48 config_type=initial n_minim_iter=12 stress="0.008255674419065117 6.121588116204657e-16 5.06172325228113e-15 6.121588116204657e-16 0.010993222171466518 3.5308461329028715e-17 5.06172325228113e-15 3.5308461329028715e-17 0.024843187701036825" pbc="T T T"
Si       3.90412338       4.07349252       4.81376014
Si       1.90170850       2.95653506       4.81376014
Si       1.90170850       4.07349252       0.91848183
Si       3.90412338       2.95653506       0.91848183
Si       3.55096395       6.18934457       5.02192651
Si       2.25486792       0.84068301       5.02192651
Si       2.25486792       6.18934457       1.12664820
Si       3.55096395       0.84068301       1.12664820
Si       4.84468265       4.22813309       6.97147574
Si       0.96114922       2.80189448       6.97147574
Si       0.96114922       4.22813309       3.07619743
Si       4.84468265       2.80189448       3.07619743
Si       2.35148994       6.11907013       3.25895638
Si       3.45434193       0.91095744       3.25895638
Si       3.45434193       6.11907013       7.15423469
Si       2.35148994       0.91095744       7.15423469
16
Lattice="5.756658643224155 4.0386133583052685e-32 1.2221999793939065e-32 -1.4220074744743222e-32 7.060417596880826 -7.126054588099047e-16 -6.3708548487482e-33 3.953425591885312e-16 7.793880732827981" Properties=species:S:1:pos:R:3 unique_starting_index=48 config_type=initial n_minim_iter=13 stress="-0.006451848819365923 7.344179333338584e-16 6.9691723237145196e-15 7.344179333338584e-16 -0.001208416755388899 -1.8158925874903623e-16 6.9691723237145196e-15 -1.8158925874903623e-16 0.006175276391762476" pbc="T T T"
Si       3.87045284       4.09778653       4.81780539
Si       1.88620581       2.96263106       4.81780539
Si       1.88620581       4.09778653       0.92086502
Si       3.87045284       2.96263106       0.92086502
Si       3.51913970       6.21768735       5.02540897
Si       2.23751894       0.84273025       5.02540897
Si       2.23751894       6.21768735       1.12846861
Si       3.51913970       0.84273025       1.12846861
Si       4.80183183       4.24814072       6.97451781
Si       0.95482682       2.81227687       6.97451781
Si       0.95482682       4.24814072       3.07757745
Si       4.80183183       2.81227687       3.07757745
Si       2.33300359       6.14754646       3.25694850
Si       3.42365505       0.91287114       3.25694850
Si       3.42365505       6.14754646       7.15388886
Si       2.33300359       0.91287114       7.15388886
16
Lattice="5.8078972431969 4.074184262392688e-32 1.2368984127823273e-32 -1.3877717900281385e-32 7.046058416867774 -6.929100861185164e-16 -6.21749952604266e-33 4.1442693596427297e-16 7.774922458197005" Properties=species:S:1:pos:R:3 unique_starting_index=48 config_type=initial n_minim_iter=14 stress="-0.002473479778621664 6.869728461924005e-16 6.0914209401806915e-15 6.869728461924005e-16 -0.0010855987149107939 -6.337597114397193e-17 6.0914209401806915e-15 -6.337597114397193e-17 -0.0060682649144340245" pbc="T T T"
Si       3.89988423       4.08821137       4.80914975
Si       1.90801302       2.95784705       4.80914975
Si       1.90801302       4.08821137       0.92168852
Si       3.89988423       2.95784705       0.92168852
Si       3.55373327       6.20968462       5.01131619
Si       2.25416397       0.83637380       5.01131619
Si       2.25416397       6.20968462       1.12385496
Si       3.55373327       0.83637380       1.12385496
Si       4.84553543       4.24085004       6.95761949
Si       0.96236182       2.80520838       6.95761949
Si       0.96236182       4.24085004       3.07015826
Si       4.84553543       2.80520838       3.07015826
Si       2.35852918       6.13418038       3.24776445
Si       3.44936806       0.91187804       3.24776445
Si       3.44936806       6.13418038       7.13522568
Si       2.35852918       0.91187804       7.13522568
16
Lattice="5.90878898180151 4.1350395910610315e-32 1.2546828969755176e-32 -1.3438512309447643e-32 7.041999770024349 -6.828818136763387e-16 -6.0437138267195286e-33 4.21994174084697e-16 7.7411974377328505" Properties=species:S:1:pos:R:3 unique_starting_index=48 config_type=initial n_minim_iter=15 stress="0.011247035651158983 7.55351461038842e-16 5.340712246770183e-15 7.55351461038842e-16 0.01463930606328199 1.0727955384364115e-17 5.340712246770183e-15 1.0727955384364115e-17 -0.01948891277232642" pbc="T T T"
Si       3.95247853       4.09468292       4.80208263
Si       1.95631045       2.94731685       4.80208263
Si       1.95631045       4.09468292       0.93148391
Si       3.95247853       2.94731685       0.93148391
Si       3.63022503       6.22444216       4.98079677
Si       2.27856395       0.81755761       4.98079677
Si       2.27856395       6.22444216       1.11019805
Si       3.63022503       0.81755761       1.11019805
Si       4.93262920       4.23582084       6.92870672
Si       0.97615978       2.80617893       6.92870672
Si       0.97615978       4.23582084       3.05810800
Si       4.93262920       2.80617893       3.05810800
Si       2.41929621       6.12269459       3.22739831
Si       3.48949277       0.91930518       3.22739831
Si       3.48949277       6.12269459       7.09799703
Si       2.41929621       0.91930518       7.09799703
16
Lattice="5.832490761489282 4.202499892441302e-32 1.262118795728931e-32 -1.2989490846632933e-32 7.101820440377964 -6.730038722005684e-16 -5.932258396050213e-33 4.384882303611355e-16 7.760264488913285" Properties=species:S:1:pos:R:3 unique_starting_index=48 config_type=initial n_minim_iter=16 stress="0.0006619625162876052 1.1094795383377566e-15 5.2053750867112865e-15 1.1094795383377566e-15 0.013961289809353055 4.788834554923495e-16 5.2053750867112865e-15 4.788834554923495e-16 0.008331070818654513" pbc="T T T"
Si       3.89539338       4.15698047       4.83281557
Si       1.93709738       2.94483997       4.83281557
Si       1.93709738       4.15698047       0.95268333
Si       3.89539338       2.94483997       0.95268333
Si       3.60985695       6.30212663       4.98367403
Si       2.22263381       0.79969381       4.98367403
Si       2.22263381       6.30212663       1.10354178
Si       3.60985695       0.79969381       1.10354178
Si       4.87580473       4.24784616       6.94918095
Si       0.95668603       2.85397428       6.94918095
Si       0.95668603       4.24784616       3.06904871
Si       4.87580473       2.85397428       3.06904871
Si       2.41605767       6.16211741       3.22242484
Si       3.41643309       0.93970303       3.22242484
Si       3.41643309       6.16211741       7.10255708
Si       2.41605767       0.93970303       7.10255708
16
Lattice="5.841041800457568 4.280805309206228e-32 1.273832276859463e-32 -1.2290454029448393e-32 7.113237239150332 -6.562483923027221e-16 -5.7851395686056145e-33 4.565509161509545e-16 7.74787213112198" Properties=species:S:1:pos:R:3 unique_starting_index=48 config_type=initial n_minim_iter=17 stress="0.009945396051181181 1.1635447075959217e-15 5.294624187035966e-15 1.1635447075959217e-15 0.014870839204776895 3.8529754813407004e-16 5.294624187035966e-15 3.8529754813407004e-16 0.021122219757100845" pbc="T T T"
Si       3.87933348       4.19079241       4.83819655
Si       1.96170833       2.92244483       4.83819655
Si       1.96170833       4.19079241       0.96426049
Si       3.87933348       2.92244483       0.96426049
Si       3.64755616       6.34002597       4.96150111
Si       2.19348564       0.77321127       4.96150111
Si       2.19348564       6.34002597       1.08756504
Si       3.64755616       0.77321127       1.08756504
Si       4.88478471       4.23853878       6.95719712
Si       0.95625709       2.87469846       6.95719712
Si       0.95625709       4.23853878       3.08326105
Si       4.88478471       2.87469846       3.08326105
Si       2.45820202       6.15589418       3.19928165
Si       3.38283978       0.95734306       3.19928165
Si       3.38283978       6.15589418       7.07321771
Si       2.45820202       0.95734306       7.07321771
16
Lattice="5.788466698492041 4.330191208305733e-32 1.2787486364641727e-32 -1.1841631549758464e-32 7.134799759897685 -6.381907311297984e-16 -5.709930193650095e-33 4.790233667772102e-16 7.7595629807033735" Properties=species:S:1:pos:R:3 unique_starting_index=48 config_type=initial n_minim_iter=18 stress="-0.005847851867973883 1.0510980144263281e-15 5.472361317033052e-15 1.0510980144263281e-15 -0.011044652177438557 4.937198608468428e-16 5.472361317033052e-15 4.937198608468428e-16 0.006944810709204615" pbc="T T T"
Si       3.84072183       4.21974859       4.83818191
Si       1.94774487       2.91505117       4.83818191
Si       1.94774487       4.21974859       0.95840042
Si       3.84072183       2.91505117       0.95840042
Si       3.61212441       6.35701655       4.96918385
Si       2.17634229       0.77778321       4.96918385
Si       2.17634229       6.35701655       1.08940236
Si       3.61212441       0.77778321       1.08940236
Si       4.83279561       4.25654856       6.98238665
Si       0.95567109       2.87825120       6.98238665
Si       0.95567109       4.25654856       3.10260516
Si       4.83279561       2.87825120       3.10260516
Si       2.44185217       6.17446157       3.19653610
Si       3.34661452       0.96033819       3.19653610
Si       3.34661452       6.17446157       7.07631759
Si       2.44185217       0.96033819       7.07631759
16
Lattice="5.766909411417631 4.3846322129991727e-32 1.2844517948755042e-32 -1.1333755886687168e-32 7.146352893328327 -6.434994645268492e-16 -5.6172582523763447e-33 4.733929697976498e-16 7.753566832678721" Properties=species:S:1:pos:R:3 unique_starting_index=48 config_type=initial n_minim_iter=19 stress="-0.00271969982177818 1.1212790734156915e-15 4.895791594546598e-15 1.1212790734156915e-15 -0.002146588100276778 4.1953504722269657e-16 4.895791594546598e-15 4.1953504722269657e-16 0.0038684129778937455" pbc="T T T"
Si       3.82922158       4.23564016       4.83820612
Si       1.93768783       2.91071274       4.83820612
Si       1.93768783       4.23564016       0.96142270
Si       3.82922158       2.91071274       0.96142270
Si       3.60776731       6.37371071       4.96353933
Si       2.15914210       0.77264219       4.96353933
Si       2.15914210       6.37371071       1.08675592
Si       3.60776731       0.77264219       1.08675592
Si       4.81557407       4.25355463       6.97802940
Si       0.95133534       2.89279826       6.97802940
Si       0.95133534       4.25355463       3.10124598
Si       4.81557407       2.89279826       3.10124598
Si       2.43953276       6.17997771       3.19106940
Si       3.32737666       0.96637519       3.19106940
Si       3.32737666       6.17997771       7.06785281
Si       2.43953276       0.96637519       7.06785281
16
Lattice="5.7581073363132 4.437440176976015e-32 1.2902783989753905e-32 -1.0810882747618905e-32 7.1496200090811834 -6.471535934797074e-16 -5.532810389696537e-33 4.689943622261259e-16 7.747158741305568" Properties=species:S:1:pos:R:3 unique_starting_index=48 config_type=initial n_minim_iter=20 stress="0.0008340411511489782 8.978390648025404e-16 5.508695628768131e-15 8.978390648025404e-16 -2.6467244210704006e-05 5.2833003415878865e-16 5.508695628768131e-15 5.2833003415878865e-16 -0.0003534158681379324" pbc="T T T"
Si       3.82872531       4.24177596       4.83509101
Si       1.92938203       2.90784405       4.83509101
Si       1.92938203       4.24177596       0.96151164
Si       3.82872531       2.90784405       0.96151164
Si       3.60829480       6.38042941       4.95971273
Si       2.14981254       0.76919060       4.95971273
Si       2.14981254       6.38042941       1.08613336
Si       3.60829480       0.76919060       1.08613336
Si       4.80815648       4.24845510       6.97159059
Si       0.94995086       2.90116491       6.97159059
Si       0.94995086       4.24845510       3.09801122
Si       4.80815648       2.90116491       3.09801122
Si       2.43875986       6.18191878       3.18794462
Si       3.31934748       0.96770123       3.18794462
Si       3.31934748       6.18191878       7.06152399
Si       2.43875986       0.96770123       7.06152399
16
Lattice="5.745854839049202 4.493949253620995e-32 1.2961864672472145e-32 -1.0293879450637846e-32 7.1601252465417415 -6.858932202915207e-16 -5.4570629046904824e-33 4.267940006397004e-16 7.746956753972279" Properties=species:S:1:pos:R:3 unique_starting_index=48 config_type=initial n_minim_iter=21 stress="0.0007835507590923433 8.042308668265562e-16 4.825211030766197e-15 8.042308668265562e-16 0.00026579710058578283 3.6802161810601263e-16 4.825211030766197e-15 3.6802161810601263e-16 0.00012200747709321235" pbc="T T T"
Si       3.82317955       4.25418413       4.83469247
Si       1.92267529       2.90594112       4.83469247
Si       1.92267529       4.25418413       0.96121409
Si       3.82317955       2.90594112       0.96121409
Si       3.60539888       6.39417060       4.95997634
Si       2.14045596       0.76595464       4.95997634
Si       2.14045596       6.39417060       1.08649796
Si       3.60539888       0.76595464       1.08649796
Si       4.79691380       4.25102239       6.97273624
Si       0.94894104       2.90910285       6.97273624
Si       0.94894104       4.25102239       3.09925786
Si       4.79691380       2.90910285       3.09925786
Si       2.43829536       6.18988882       3.18641364
Si       3.30755948       0.97023643       3.18641364
Si       3.30755948       6.18988882       7.05989202
Si       2.43829536       0.97023643       7.05989202
