20
Lattice="4.40571697531626 -7.194128071802556e-16 4.133650175333547e-12 6.513410040326976e-16 3.9888421393480384 6.485491621084393e-13 -2.0737565236593373e-11 -3.5936575781203778e-12 22.10246133907922" Properties=species:S:1:pos:R:3 unique_starting_index=4 config_type=initial n_minim_iter=1 energy=-3256.489291295644 free_energy=-3256.489291295644 pbc="T T T"
Si       3.02112284       2.32040007      13.46602227
Si       3.02112284       1.66844207       8.63643907
Si       1.24401085       1.52463315      12.13190665
Si       1.24401085       2.46420899       9.97055469
Si       1.38459413       0.32597900      19.68766973
Si       1.38459413       3.66286314       2.41479160
Si       3.16170613       3.51905422      21.02178536
Si       3.16170613       0.46978792       1.08067598
Si       2.26293776       2.74586310       4.73422122
Si       2.26293776       1.24297904      17.36824012
Si       1.71199609       3.24390042      17.86261008
Si       1.71199609       0.74494172       4.23985126
Si       2.14277922       0.75144203       6.31700945
Si       2.14277922       3.23740011      15.78545189
Si       2.69372089       1.24947935      15.29108193
Si       2.69372089       2.73936279       6.81137941
Si       5.20898715       2.31489087      20.92167583
Si       5.20898715       1.67395127       1.18078551
Si      -0.80327018       3.66837234       9.87044516
Si      -0.80327018       0.32046980      12.23201618
20
Lattice="4.405809329467849 -7.194278877554527e-16 4.133736826327644e-12 6.510670517509374e-16 3.9871644430126807 6.484562647543745e-13 -2.0728489295021632e-11 -3.5910894471192045e-12 22.092788041110072" Properties=species:S:1:pos:R:3 unique_starting_index=4 config_type=initial n_minim_iter=2 stress="-0.0012213881358203516 -1.0868810547095921e-15 -3.4820243324033966e-15 -1.0868810547095921e-15 -0.0002750932898433258 -1.3596830144522957e-15 -3.4820243324033966e-15 -1.3596830144522957e-15 -0.000404872754586604" pbc="T T T"
Si       3.02116815       2.31939376      13.46017585
Si       3.02116815       1.66777068       8.63261219
Si       1.24405320       1.52401179      12.12657668
Si       1.24405320       2.46315265       9.96621136
Si       1.38464118       0.32581154      19.67900621
Si       1.38464118       3.66135290       2.41378183
Si       3.16175613       3.51759402      21.01260539
Si       3.16175613       0.46957043       1.08018266
Si       2.26297973       2.74469745       4.73215253
Si       2.26297973       1.24246699      17.36063551
Si       1.71203716       3.24256791      17.85478807
Si       1.71203716       0.74459653       4.23799997
Si       2.14282959       0.75111523       6.31424149
Si       2.14282959       3.23604921      15.77854655
Si       2.69377217       1.24898569      15.28439399
Si       2.69377217       2.73817876       6.80839405
Si       5.20911917       2.31387967      20.91250921
Si       5.20911917       1.67328477       1.18027883
Si      -0.80330984       3.66686700       9.86611519
Si      -0.80330984       0.32029745      12.22667286
20
Lattice="4.414248611920024 -7.208059444742656e-16 4.141654956698628e-12 6.507420706015547e-16 3.9851742435694377 6.481288146100544e-13 -2.0721481502942672e-11 -3.589896616860995e-12 22.085319013202113" Properties=species:S:1:pos:R:3 unique_starting_index=4 config_type=initial n_minim_iter=3 stress="0.0013148652660731988 -8.3122419665172e-16 -5.9889720335795956e-15 -8.3122419665172e-16 -0.003574796317222168 -2.8928266599358068e-15 -5.9889720335795956e-15 -2.8928266599358068e-15 0.0026862893158656528" pbc="T T T"
Si       3.02655090       2.31762288      13.45655603
Si       3.02655090       1.66755136       8.62876298
Si       1.24681335       1.52371178      12.12201724
Si       1.24681335       2.46146246       9.96330178
Si       1.38769771       0.32503576      19.67142249
Si       1.38769771       3.66013848       2.41389653
Si       3.16743526       3.51629890      21.00596128
Si       3.16743526       0.46887534       1.07935773
Si       2.26726673       2.74265009       4.72999311
Si       2.26726673       1.24252415      17.35532591
Si       1.71500276       3.24114998      17.84962258
Si       1.71500276       0.74402427       4.23569643
Si       2.14698188       0.75006297       6.31266640
Si       2.14698188       3.23511127      15.77265261
Si       2.69924585       1.24856286      15.27835594
Si       2.69924585       2.73661139       6.80696307
Si       5.21961853       2.31187280      20.90519376
Si       5.21961853       1.67330144       1.18012525
Si      -0.80536991       3.66588856       9.86253426
Si      -0.80536991       0.31928568      12.22278476
20
Lattice="4.415390260270795 -7.209923650837975e-16 4.142726104693922e-12 6.509247672729626e-16 3.986293086350654 6.481934488377563e-13 -2.071336458915047e-11 -3.589119855436978e-12 22.076667863888144" Properties=species:S:1:pos:R:3 unique_starting_index=4 config_type=initial n_minim_iter=4 stress="0.0017758307940262002 2.9445078708923277e-16 -1.9185998280591408e-15 2.9445078708923277e-16 0.0002476521734059197 -3.102045917086834e-15 -1.9185998280591408e-15 -3.102045917086834e-15 -0.00101136732543195" pbc="T T T"
Si       3.02722395       2.31812539      13.45150404
Si       3.02722395       1.66816770       8.62516383
Si       1.24724033       1.52426282      12.11714499
Si       1.24724033       2.46203027       9.95952288
Si       1.38816631       0.32497884      19.66349776
Si       1.38816631       3.66131424       2.41317011
Si       3.16814993       3.51740936      20.99785681
Si       3.16814993       0.46888372       1.07881106
Si       2.26786752       2.74324947       4.72805972
Si       2.26786752       1.24304362      17.34860815
Si       1.71536457       3.24211049      17.84277358
Si       1.71536457       0.74418259       4.23389428
Si       2.14752274       0.75010292       6.31027421
Si       2.14752274       3.23619016      15.76639365
Si       2.70002569       1.24896395      15.27222821
Si       2.70002569       2.73732914       6.80443965
Si       5.22110938       2.31228697      20.89693452
Si       5.22110938       1.67400612       1.17973334
Si      -0.80571912       3.66715266       9.85860059
Si      -0.80571912       0.31914042      12.21806727
20
Lattice="4.402973354820515 -7.189647993421292e-16 4.131075981983106e-12 6.511194826632436e-16 3.9874855323183374 6.483893838025313e-13 -2.0712272701771878e-11 -3.588919139487975e-12 22.075504111138272" Properties=species:S:1:pos:R:3 unique_starting_index=4 config_type=initial n_minim_iter=5 stress="-0.0016617178847354258 -2.2622680237237297e-16 -3.892905659057358e-15 -2.2622680237237297e-16 -0.0005944705134671038 -2.280314606249161e-15 -3.892905659057358e-15 -2.280314606249161e-15 -0.0009477104940066629" pbc="T T T"
Si       3.01759471       2.31774725      13.45222281
Si       3.01759471       1.66973829       8.62328130
Si       1.24486660       1.52594948      12.11526434
Si       1.24486660       2.46153605       9.96023977
Si       1.38537865       0.32400448      19.66103336
Si       1.38537865       3.66348105       2.41447075
Si       3.15810676       3.51969225      20.99799183
Si       3.15810676       0.46779328       1.07751228
Si       2.26158155       2.74318231       4.72696621
Si       2.26158155       1.24430322      17.34853790
Si       1.70994834       3.24405509      17.84204158
Si       1.70994834       0.74343045       4.23346254
Si       2.14139180       0.74943955       6.31078585
Si       2.14139180       3.23804599      15.76471827
Si       2.69302501       1.25031232      15.27121459
Si       2.69302501       2.73717321       6.80428952
Si       5.20787848       2.31046196      20.89498829
Si       5.20787848       1.67702358       1.18051582
Si      -0.80490512       3.67076634       9.85723624
Si      -0.80490512       0.31671919      12.21826788
20
Lattice="4.399418725405766 -7.183843612567921e-16 4.1277408620501014e-12 6.516436470533878e-16 3.990695539049788 6.489100540873245e-13 -2.0754637910232306e-11 -3.596268058273106e-12 22.120657694571754" Properties=species:S:1:pos:R:3 unique_starting_index=4 config_type=initial n_minim_iter=6 stress="-0.0005622993235276961 -9.517142132681912e-16 -4.2860461297328525e-15 -9.517142132681912e-16 0.000716146564389138 -2.555032935104369e-15 -4.2860461297328525e-15 -2.555032935104369e-15 0.00023479254560251198" pbc="T T T"
Si       3.01042471       2.31651275      13.48319550
Si       3.01042471       1.67418279       8.63746220
Si       1.24909500       1.53282939      12.13439330
Si       1.24909500       2.45786614       9.98626439
Si       1.38899402       0.32116498      19.69779105
Si       1.38899402       3.66953056       2.42286665
Si       3.15032373       3.52817716      21.04659324
Si       3.15032373       0.46251837       1.07406446
Si       2.26021833       2.74240413       4.73547588
Si       2.26021833       1.24829141      17.38518181
Si       1.70760757       3.25049504      17.87282199
Si       1.70760757       0.74020050       4.24783570
Si       2.13920040       0.74705636       6.32485297
Si       2.13920040       3.24363918      15.79580473
Si       2.69181115       1.25514727      15.30816455
Si       2.69181115       2.73554827       6.81249314
Si       5.21048792       2.30053861      20.93370469
Si       5.21048792       1.69015693       1.18695300
Si      -0.81106920       3.68550470       9.87337584
Si      -0.81106920       0.30519084      12.24728185
20
Lattice="4.396478646669449 -7.179042736095543e-16 4.124982342369433e-12 6.515640729054344e-16 3.9902082233231737 6.488147230356325e-13 -2.0769662555665567e-11 -3.5989611802744236e-12 22.13667122562198" Properties=species:S:1:pos:R:3 unique_starting_index=4 config_type=initial n_minim_iter=7 stress="-0.0010855691276867286 -5.074529070023161e-17 -4.782064662212812e-15 -5.074529070023161e-17 0.000257228502419139 -3.9294008339680754e-15 -4.782064662212812e-15 -3.9294008339680754e-15 0.0004053198745187548" pbc="T T T"
Si       3.00677927       2.31523966      13.49414753
Si       3.00677927       1.67496857       8.64252370
Si       1.24963148       1.53406140      12.14159287
Si       1.24963148       2.45614683       9.99507836
Si       1.38969938       0.32013555      19.71085931
Si       1.38969938       3.67007268       2.42581192
Si       3.14684717       3.52916551      21.06341397
Si       3.14684717       0.46104272       1.07325725
Si       2.25885156       2.73999265       4.73839570
Si       2.25885156       1.25021558      17.39827553
Si       1.70622392       3.25032590      17.88359834
Si       1.70622392       0.73988233       4.25307288
Si       2.13762709       0.74488854       6.32993991
Si       2.13762709       3.24531969      15.80673131
Si       2.69025472       1.25522178      15.32140850
Si       2.69025472       2.73498644       6.81526273
Si       5.20901971       2.29643381      20.94781874
Si       5.20901971       1.69377442       1.18885248
Si      -0.81254106       3.68887853       9.87948313
Si      -0.81254106       0.30132969      12.25718809
20
Lattice="4.396271432346827 -7.178704374284853e-16 4.124787924179187e-12 6.523287227535262e-16 3.994890974012959 6.495272078593723e-13 -2.0813190884582226e-11 -3.6067753431856302e-12 22.183064483270975" Properties=species:S:1:pos:R:3 unique_starting_index=4 config_type=initial n_minim_iter=8 stress="0.0007404929776650463 -8.421845331466997e-16 -3.1030391579437798e-15 -8.421845331466997e-16 7.319778948633473e-05 -3.956097080554185e-15 -3.1030391579437798e-15 -3.956097080554185e-15 -0.00028869526526728736" pbc="T T T"
Si       3.00039970       2.31402577      13.52767464
Si       3.00039970       1.68086521       8.65538984
Si       1.25348148       1.53976867      12.16201883
Si       1.25348148       2.45512231      10.02104565
Si       1.39587173       0.31658028      19.74692208
Si       1.39587173       3.67831069       2.43614240
Si       3.14278995       3.53721416      21.11257789
Si       3.14278995       0.45767682       1.07048659
Si       2.25920931       2.73972259       4.74581044
Si       2.25920931       1.25516838      17.43725404
Si       1.70522372       3.25956994      17.91364222
Si       1.70522372       0.73532103       4.26942226
Si       2.13706213       0.74227711       6.34572180
Si       2.13706213       3.25261387      15.83734268
Si       2.69104771       1.26212446      15.36095450
Si       2.69104771       2.73276652       6.82210998
Si       5.21540713       2.28548531      20.98882991
Si       5.21540713       1.70940567       1.19423457
Si      -0.81913570       3.70685115       9.89729767
Si      -0.81913570       0.28803982      12.28576681
20
Lattice="4.397180031896102 -7.1801880332615805e-16 4.125640414865061e-12 6.521779660938456e-16 3.993967733326704 6.493971238351531e-13 -2.0792373369013524e-11 -3.6030568866354198e-12 22.160876809463257" Properties=species:S:1:pos:R:3 unique_starting_index=4 config_type=initial n_minim_iter=9 stress="-0.00020500680604632637 -1.7682879658458874e-15 -3.8548930825796714e-15 -1.7682879658458874e-15 5.067314634146187e-05 -3.4571660185039912e-15 -3.8548930825796714e-15 -3.4571660185039912e-15 0.0002469634370099048" pbc="T T T"
Si       3.00255770       2.31494962      13.51294356
Si       3.00255770       1.67901811       8.64793325
Si       1.24950253       1.53436331      12.15374439
Si       1.24950253       2.45960442      10.00713242
Si       1.39462233       0.31796575      19.72837165
Si       1.39462233       3.67600198       2.43250516
Si       3.14767750       3.53134718      21.08757082
Si       3.14767750       0.46262056       1.07330599
Si       2.25961034       2.73971244       4.74032723
Si       2.25961034       1.25425529      17.42054958
Si       1.70613352       3.25695977      17.89742703
Si       1.70613352       0.73700796       4.26344977
Si       2.13756969       0.74272857       6.34011117
Si       2.13756969       3.25123916      15.82076564
Si       2.69104651       1.25997591      15.34388818
Si       2.69104651       2.73399183       6.81698863
Si       5.21245897       2.29064991      20.97089299
Si       5.21245897       1.70331783       1.18998382
Si      -0.81527894       3.70030169       9.89045458
Si      -0.81527894       0.29366604      12.27042223
20
Lattice="4.396803562215364 -7.179573293120221e-16 4.1252871933642906e-12 6.538007757053616e-16 4.003905893713851 6.511209535533405e-13 -2.0821582513180223e-11 -3.6075200067541995e-12 22.192008428451395" Properties=species:S:1:pos:R:3 unique_starting_index=4 config_type=initial n_minim_iter=10 stress="-0.00022841672757622643 -1.761539715653534e-15 -3.392108219021915e-15 -1.761539715653534e-15 0.0008190998432982488 -2.4982217026282123e-15 -3.392108219021915e-15 -2.4982217026282123e-15 -2.723775739551009e-05" pbc="T T T"
Si       2.99044859       2.31593174      13.54113129
Si       2.99044859       1.68797416       8.65087714
Si       1.24350410       1.52879538      12.17158106
Si       1.24350410       2.47511052      10.02042737
Si       1.40635498       0.31397879      19.74688135
Si       1.40635498       3.68992710       2.44512707
Si       3.15329946       3.53074832      21.11643159
Si       3.15329946       0.47315757       1.07557684
Si       2.26131636       2.73880702       4.73570758
Si       2.26131636       1.26509888      17.45630085
Si       1.70502670       3.27310965      17.90839288
Si       1.70502670       0.73079625       4.28361555
Si       2.13548721       0.73685407       6.36029663
Si       2.13548721       3.26705182      15.83171180
Si       2.69177686       1.27115670      15.37961977
Si       2.69177686       2.73274919       6.81238866
Si       5.21578636       2.28024108      21.00231780
Si       5.21578636       1.72366481       1.18969063
Si      -0.81898280       3.72561776       9.90631359
Si      -0.81898280       0.27828813      12.28569484
20
Lattice="4.407464424194152 -7.196981494071874e-16 4.135289713779164e-12 6.542771737634119e-16 4.006823377241404 6.516290301417734e-13 -2.077697773297813e-11 -3.599601041081825e-12 22.144467870111548" Properties=species:S:1:pos:R:3 unique_starting_index=4 config_type=initial n_minim_iter=11 stress="0.0007025850760305576 -7.375916788162413e-17 -8.767067569637239e-15 -7.375916788162413e-17 -0.0012827844997108455 -4.095381538872607e-15 -8.767067569637239e-15 -4.095381538872607e-15 0.00019719850403632577" pbc="T T T"
Si       2.99122103       2.31829830      13.51180282
Si       2.99122103       1.68852508       8.63266505
Si       1.24024677       1.52020243      12.14646160
Si       1.24024677       2.48662095       9.99800627
Si       1.41624340       0.31488661      19.70489898
Si       1.41624340       3.69193677       2.43956889
Si       3.16721766       3.52361412      21.07024021
Si       3.16721766       0.48320926       1.07422766
Si       2.27161704       2.73748128       4.71483344
Si       2.27161704       1.26934210      17.42963443
Si       1.70687529       3.27924461      17.86422390
Si       1.70687529       0.72757877       4.28024397
Si       2.13584739       0.73406959       6.35740049
Si       2.13584739       3.27275379      15.78706738
Si       2.70058914       1.27583292      15.35247790
Si       2.70058914       2.73099046       6.79198997
Si       5.23188374       2.27827743      20.95199552
Si       5.23188374       1.72854595       1.19247235
Si      -0.82441932       3.73195764       9.87976159
Si      -0.82441932       0.27486574      12.26470628
20
Lattice="4.4116896629268725 -7.203880917876681e-16 4.139254030807733e-12 6.547759405777967e-16 4.009877848055572 6.521247293707821e-13 -2.073988545409477e-11 -3.5931761577650975e-12 22.1049342676541" Properties=species:S:1:pos:R:3 unique_starting_index=4 config_type=initial n_minim_iter=12 stress="0.00038887999903685017 -4.270935065474667e-16 -1.055048189575664e-14 -4.270935065474667e-16 0.0007429770744688406 -3.196431754349348e-15 -1.055048189575664e-14 -3.196431754349348e-15 0.00017062945416477523" pbc="T T T"
Si       2.98736270       2.32031238      13.48705337
Si       2.98736270       1.68956547       8.61788089
Si       1.23710641       1.51403000      12.12421463
Si       1.23710641       2.49584785       9.98071964
Si       1.42432696       0.31537346      19.67034803
Si       1.42432696       3.69450439       2.43458624
Si       3.17458325       3.51896892      21.03318678
Si       3.17458325       0.49090893       1.07174749
Si       2.27900296       2.73616363       4.69660726
Si       2.27900296       1.27371422      17.40832701
Si       1.70595280       3.28506219      17.82674489
Si       1.70595280       0.72481566       4.27818938
Si       2.13268670       0.73122471       6.35585987
Si       2.13268670       3.27865314      15.74907440
Si       2.70573686       1.28012327      15.33065651
Si       2.70573686       2.72975458       6.77427775
Si       5.24180730       2.27679893      20.90879874
Si       5.24180730       1.73307892       1.19613552
Si      -0.83011764       3.73801785       9.85633161
Si      -0.83011764       0.27186000      12.24860266
20
Lattice="4.4131010611389865 -7.206185600538714e-16 4.140578270766789e-12 6.546767455270872e-16 4.009270373025532 6.520138711771365e-13 -2.0714741502965904e-11 -3.588884989305249e-12 22.078135402821314" Properties=species:S:1:pos:R:3 unique_starting_index=4 config_type=initial n_minim_iter=13 stress="-0.0009696359632499097 -2.342099593387043e-15 -1.1115292181848806e-14 -2.342099593387043e-15 -0.0009018897050475546 -2.321139141363587e-15 -1.1115292181848806e-14 -2.321139141363587e-15 -0.00038685932726942817" pbc="T T T"
Si       2.98101987       2.31960265      13.46934898
Si       2.98101987       1.68966772       8.60878642
Si       1.23550702       1.50955450      12.10710907
Si       1.23550702       2.49971587       9.97102633
Si       1.43208119       0.31496746      19.64785412
Si       1.43208119       3.69430291       2.43028128
Si       3.17759404       3.51418969      21.01009403
Si       3.17759404       0.49508069       1.06804137
Si       2.28611497       2.73335192       4.68345530
Si       2.28611497       1.27591845      17.39468010
Si       1.70380340       3.28677957      17.80093774
Si       1.70380340       0.72249080       4.27719766
Si       2.12698609       0.72871673       6.35561240
Si       2.12698609       3.28055364      15.72252300
Si       2.70929766       1.28214438      15.31626536
Si       2.70929766       2.72712599       6.76187004
Si       5.25007853       2.27866781      20.87950691
Si       5.25007853       1.73060256       1.19862850
Si      -0.83697747       3.73523775       9.84043921
Si      -0.83697747       0.27403262      12.23769620
20
Lattice="4.419543464310885 -7.21670544867857e-16 4.146622835397322e-12 6.546835150401633e-16 4.009311829835926 6.520104694036634e-13 -2.0729556408493595e-11 -3.5915090181431046e-12 22.093925389395576" Properties=species:S:1:pos:R:3 unique_starting_index=4 config_type=initial n_minim_iter=14 stress="0.00025044372862140257 -3.3286668604176165e-15 -7.916825457351754e-15 -3.3286668604176165e-15 0.0019985988349326632 -1.357861834147632e-15 -7.916825457351754e-15 -1.357861834147632e-15 0.00033170935697550896" pbc="T T T"
Si       2.97133113       2.31682068      13.48232117
Si       2.97133113       1.69249115       8.61160422
Si       1.23481184       1.50493746      12.11218638
Si       1.23481184       2.50437437       9.98173901
Si       1.44821233       0.31216476      19.65856692
Si       1.44821233       3.69714707       2.43535847
Si       3.18473162       3.50959338      21.02870171
Si       3.18473162       0.49971845       1.06522368
Si       2.29800039       2.72951492       4.67905023
Si       2.29800039       1.27979690      17.41487516
Si       1.70375909       3.29076667      17.80551482
Si       1.70375909       0.71854516       4.28841057
Si       2.12154307       0.72485901       6.36791246
Si       2.12154307       3.28445282      15.72601293
Si       2.71578437       1.28611075      15.33537327
Si       2.71578437       2.72320108       6.75855212
Si       5.26667434       2.28364005      20.89858307
Si       5.26667434       1.72567178       1.19534232
Si      -0.84713087       3.73032770       9.85162037
Si      -0.84713087       0.27898413      12.24230502
20
Lattice="4.418824617775832 -7.215531638819479e-16 4.145948379883657e-12 6.541624688306959e-16 4.006120918987704 6.514840724702034e-13 -2.0732495516689505e-11 -3.5920610753208707e-12 22.09705794254396" Properties=species:S:1:pos:R:3 unique_starting_index=4 config_type=initial n_minim_iter=15 stress="-0.00028297212407568716 -2.4452622515508408e-15 -7.868235478918018e-15 -2.4452622515508408e-15 -0.0030529902966549985 -3.3142165828031583e-15 -7.868235478918018e-15 -3.3142165828031583e-15 -0.0003580841877471655" pbc="T T T"
Si       2.97230578       2.31770279      13.48371299
Si       2.97230578       1.68841813       8.61334496
Si       1.23495339       1.50592660      12.11411205
Si       1.23495339       2.50019432       9.98294589
Si       1.44651884       0.31464233      19.66187393
Si       1.44651884       3.69147859       2.43518402
Si       3.18387123       3.50898706      21.03147486
Si       3.18387123       0.49713386       1.06558308
Si       2.29697494       2.72929359       4.68342883
Si       2.29697494       1.27682733      17.41362911
Si       1.70449676       3.28645471      17.81156059
Si       1.70449676       0.71966621       4.28549736
Si       2.12184968       0.72623313       6.36510014
Si       2.12184968       3.27988779      15.73195781
Si       2.71432786       1.28339425      15.33402633
Si       2.71432786       2.72272667       6.76303161
Si       5.26410836       2.28534324      20.90371099
Si       5.26410836       1.72077768       1.19334695
Si      -0.84528374       3.72383814       9.85518202
Si      -0.84528374       0.28228278      12.24187593
20
Lattice="4.42538296270182 -7.226240809118368e-16 4.1521017265024135e-12 6.539126055767176e-16 4.004590744982027 6.512364776635981e-13 -2.071561714864356e-11 -3.589129253783613e-12 22.079068681367694" Properties=species:S:1:pos:R:3 unique_starting_index=4 config_type=initial n_minim_iter=16 stress="0.0004545096661020558 -2.0889821452529292e-15 -5.992162032584732e-15 -2.0889821452529292e-15 -4.6809750238430895e-05 -2.2542429295820043e-15 -5.992162032584732e-15 -2.2542429295820043e-15 -0.00022455452399358853" pbc="T T T"
Si       2.95796956       2.32821316      13.47654734
Si       2.95796956       1.67637759       8.60252134
Si       1.22864283       1.49951323      12.10133825
Si       1.22864283       2.50507751       9.97773043
Si       1.46741341       0.32591779      19.64205568
Si       1.46741341       3.67867296       2.43701300
Si       3.19674013       3.50180861      21.01726477
Si       3.19674013       0.50278214       1.06180391
Si       2.31112757       2.72492093       4.67202212
Si       2.31112757       1.27966982      17.40704656
Si       1.70581692       3.28882256      17.79302570
Si       1.70581692       0.71576819       4.28604298
Si       2.11425539       0.72262556       6.36751222
Si       2.11425539       3.28196519      15.71155646
Si       2.71956604       1.28652718      15.32557732
Si       2.71956604       2.71806356       6.75349136
Si       5.28011230       2.28584009      20.88764272
Si       5.28011230       1.71875066       1.19142596
Si      -0.85472933       3.72104603       9.84810838
Si      -0.85472933       0.28354471      12.23096030
20
Lattice="4.423784103644499 -7.223630020255137e-16 4.150601601991546e-12 6.53619433220869e-16 4.002795344049544 6.50943476555179e-13 -2.07285315583984e-11 -3.5913740060844524e-12 22.092833086160024" Properties=species:S:1:pos:R:3 unique_starting_index=4 config_type=initial n_minim_iter=17 stress="4.2564997258010974e-05 -3.846103124536752e-15 -2.8643216259693366e-15 -3.846103124536752e-15 -0.0005220079429672468 -5.859613670088366e-16 -2.8643216259693366e-15 -5.859613670088366e-16 0.0002361159470184261" pbc="T T T"
Si       2.95019896       2.33151683      13.48687375
Si       2.95019896       1.67127851       8.60595934
Si       1.22755316       1.50018064      12.10703392
Si       1.22755316       2.50261470       9.98579916
Si       1.47358515       0.33011916      19.65237588
Si       1.47358515       3.67267619       2.44045721
Si       3.19623094       3.50157831      21.03221571
Si       3.19623094       0.50121703       1.06061738
Si       2.31318205       2.72278096       4.67539902
Si       2.31318205       1.28001438      17.41743407
Si       1.70578941       3.28801050      17.80398310
Si       1.70578941       0.71478485       4.28884998
Si       2.11060206       0.72138329       6.37101753
Si       2.11060206       3.28141205      15.72181556
Si       2.71799469       1.28661283      15.33526652
Si       2.71799469       2.71618252       6.75756656
Si       5.28174598       2.28616597      20.90104819
Si       5.28174598       1.71662938       1.19178490
Si      -0.85796187       3.71802705       9.85463165
Si      -0.85796187       0.28476829      12.23820144
20
Lattice="4.419681448774883 -7.216930764555142e-16 4.146752298889199e-12 6.532846770909254e-16 4.000745282179201 6.506094974158394e-13 -2.0757062986957244e-11 -3.5963232740842348e-12 22.123242383947645" Properties=species:S:1:pos:R:3 unique_starting_index=4 config_type=initial n_minim_iter=18 stress="-0.00031107400147545116 -3.4902573417802533e-15 1.2740286296649552e-15 -3.4902573417802533e-15 -0.0007212280558158876 -3.8811186256779374e-16 1.2740286296649552e-15 -3.8811186256779374e-16 -5.268508002091923e-05" pbc="T T T"
Si       2.93596679       2.33893681      13.50926465
Si       2.93596679       1.66180848       8.61397774
Si       1.22629133       1.50325854      12.12228528
Si       1.22629133       2.49748674      10.00095710
Si       1.48371466       0.33856416      19.67559893
Si       1.48371466       3.66218112       2.44764346
Si       3.19339011       3.50363118      21.06257830
Si       3.19339011       0.49711410       1.06066409
Si       2.31356883       2.72002598       4.68576486
Si       2.31356883       1.28071930      17.43747753
Si       1.70781713       3.28710366      17.83057471
Si       1.70781713       0.71364162       4.29266768
Si       2.10611262       0.71965334       6.37585634
Si       2.10611262       3.28109194      15.74738605
Si       2.71186432       1.28673102      15.35428887
Si       2.71186432       2.71401427       6.76895351
Si       5.28253602       2.28971636      20.92904847
Si       5.28253602       1.71102892       1.19419391
Si      -0.86285457       3.71140156       9.86742728
Si      -0.86285457       0.28934372      12.25581510
20
Lattice="4.420122440275736 -7.217650862868398e-16 4.147166057785878e-12 6.540934779622835e-16 4.005698415760851 6.514049515292696e-13 -2.0753862730901154e-11 -3.595822477583006e-12 22.119831494822083" Properties=species:S:1:pos:R:3 unique_starting_index=4 config_type=initial n_minim_iter=19 stress="-0.00022946437763795966 -4.2117050762180005e-15 6.976337470496975e-16 -4.2117050762180005e-15 0.001947046060248575 -5.566045763234786e-16 6.976337470496975e-16 -5.566045763234786e-16 0.0002103629457508337" pbc="T T T"
Si       2.92323672       2.34693880      13.51030812
Si       2.92323672       1.65875962       8.60952338
Si       1.22199506       1.49993375      12.12300669
Si       1.22199506       2.50576467       9.99682481
Si       1.49688572       0.34408959      19.66943912
Si       1.49688572       3.66160883       2.45039237
Si       3.19812738       3.50278296      21.05674055
Si       3.19812738       0.50291546       1.06309094
Si       2.31564649       2.71994710       4.68128801
Si       2.31564649       1.28575132      17.43854348
Si       1.71218340       3.29516971      17.82550271
Si       1.71218340       0.71052870       4.29432878
Si       2.10447595       0.71709789       6.37862774
Si       2.10447595       3.28860053      15.74120376
Si       2.70793904       1.29232050      15.35424453
Si       2.70793904       2.71337791       6.76558697
Si       5.28876542       2.29693788      20.92313450
Si       5.28876542       1.70876054       1.19669699
Si      -0.86864298       3.71160975       9.86321875
Si      -0.86864298       0.29408867      12.25661274
20
Lattice="4.420271955738905 -7.217895007786984e-16 4.147306340201646e-12 6.543741688208179e-16 4.0074173794364 6.516625772894306e-13 -2.074776294430055e-11 -3.5948861383206347e-12 22.11333023510427" Properties=species:S:1:pos:R:3 unique_starting_index=4 config_type=initial n_minim_iter=20 stress="0.00022642893725068134 -5.0402327518781624e-15 2.744290085126225e-15 -5.0402327518781624e-15 -0.0009039924039413271 5.85774493512484e-16 2.744290085126225e-15 5.85774493512484e-16 -0.0004370597133098395" pbc="T T T"
Si       2.92721155       2.34811469      13.50501855
Si       2.92721155       1.65930269       8.60831169
Si       1.22367566       1.50225702      12.12085903
Si       1.22367566       2.50516036       9.99247120
Si       1.49306040       0.34440600      19.66497681
Si       1.49306040       3.66301138       2.44835343
Si       3.19659630       3.50596571      21.04913632
Si       3.19659630       0.50145167       1.06419392
Si       2.31078180       2.72151154       4.68237247
Si       2.31078180       1.28590584      17.43095777
Si       1.71549786       3.29601648      17.82291857
Si       1.71549786       0.71140090       4.29041166
Si       2.10949016       0.71780285       6.37429265
Si       2.10949016       3.28961453      15.73903758
Si       2.70477410       1.29230779      15.34707678
Si       2.70477410       2.71510959       6.76625346
Si       5.28716274       2.29785923      20.91635979
Si       5.28716274       1.70955815       1.19697044
Si      -0.86689078       3.71326684       9.85969467
Si      -0.86689078       0.29415054      12.25363556
20
Lattice="4.420750973512829 -7.218677199480824e-16 4.147755777130135e-12 6.550372933988101e-16 4.011478384723506 6.523235392715654e-13 -2.0729617734990346e-11 -3.5917369266630826e-12 22.0939907522531" Properties=species:S:1:pos:R:3 unique_starting_index=4 config_type=initial n_minim_iter=21 stress="0.00033087355430127494 -3.3576512066565754e-15 2.762740981889667e-15 -3.3576512066565754e-15 -0.001071068176565239 -2.6873677407427285e-15 2.762740981889667e-15 -2.6873677407427285e-15 0.0007645554505822616" pbc="T T T"
Si       2.91634007       2.35600936      13.49389015
Si       2.91634007       1.65546902       8.60010060
Si       1.22129534       1.50122915      12.10783608
Si       1.22129534       2.51024923       9.98615467
Si       1.50441091       0.35027017      19.64709597
Si       1.50441091       3.66120821       2.44689478
Si       3.19945563       3.50696835      21.03315005
Si       3.19945563       0.50451004       1.06084071
Si       2.31293881       2.72027201       4.67285242
Si       2.31293881       1.29120638      17.42113834
Si       1.71985507       3.30317935      17.80506006
Si       1.71985507       0.70829903       4.28893070
Si       2.10781216       0.71453282       6.37414296
Si       2.10781216       3.29694557      15.71984779
Si       2.70089590       1.29744016      15.33592607
Si       2.70089590       2.71403822       6.75806468
Si       5.29545338       2.30238380      20.89872357
Si       5.29545338       1.70909459       1.19526719
Si      -0.87470240       3.71483378       9.85172819
Si      -0.87470240       0.29664460      12.24226256
