14
Lattice="7.870795066884941 -0.12406782452579916 2.318551112225258 -0.256335038792484 9.118906430364037 0.1984832512155449 -1.930797969571118 0.06597391011310536 6.557171946591614" Properties=species:S:1:pos:R:3 unique_starting_index=20 config_type=initial n_minim_iter=15 energy=-2288.2248818995495 free_energy=-2288.2248818995495 pbc="T T T"
Si       2.97000200       5.50295583       8.12825254
Si       4.76101706       3.40399402       1.55021772
Si       2.71366006       3.55785669       0.94595377
Si       0.92264500       5.65681850       7.52398859
Si       5.83724139       5.11568955       5.41278564
Si       5.80831187       3.04817094       5.42548350
Si      -0.15357933       3.94512297       3.66142067
Si      -0.12464981       6.01264158       3.64872281
Si       1.32151215       4.60075846       2.24047005
Si       0.31948709       4.63608679       5.64224606
Si       4.36214991       4.46005405       6.83373626
Si       5.36417497       4.42472572       3.43196025
Si       3.37530415       4.51211106       2.72570162
Si       2.30835791       4.54870145       6.34850469
