8
Lattice="20.84006326581549 -5.485016391322294 2.321165558318126 -9.225303998525797 19.47530251038609 -2.321165558318124 -5.053214413188508 -7.621252304819372 5.630443093089933" Properties=species:S:1:pos:R:3 unique_starting_index=38 config_type=initial n_minim_iter=1 energy=-1268.3738573514036 free_energy=-1268.3738573514036 pbc="T T T"
Si       9.03967177       7.48249395       1.95911102
Si       0.63855681       2.64067436       3.67133160
Si      -2.47812877      -1.11345622       3.67133160
Si       5.92298620       3.72836336       1.95911102
Si       7.69922528      -2.74226763       5.16070157
Si       2.44966757      13.43236356       0.46974106
Si      -1.13768228       9.11130536       0.46974106
Si       4.11187543      -7.06332584       5.16070157
8
Lattice="12.183493845059722 -5.277482015341013 7.543821440393187 -7.428780081966325 11.004661066504513 -7.543821440393337 -0.7127143675703528 -4.245578564361034 5.469759382622908" Properties=species:S:1:pos:R:3 unique_starting_index=38 config_type=initial n_minim_iter=2 stress="0.0075621013703871314 -0.03346030474825434 -0.012236521435323092 -0.03346030474825434 -0.004962922914677345 0.010158780851998263 -0.012236521435323092 0.010158780851998263 0.0026837483547031706" pbc="T T T"
Si       4.46096869       2.37526592       2.40724536
Si       0.80133365       0.57622589       3.06251251
Si      -0.41897079      -0.89366322       3.06251251
Si       3.24066425       0.90537680       2.40724536
Si       5.47428225      -3.04870098       6.89638136
Si       0.03823825       6.30158721      -1.42662349
Si      -1.43228435       4.53030368      -1.42662349
Si       4.00375966      -4.81998452       6.89638136
8
Lattice="12.113314035583725 -5.262766711195368 7.594074466544637 -7.401405096592252 10.938386214487178 -7.594074466544979 -0.6827345439231466 -4.226919772082051 5.471049141166865" Properties=species:S:1:pos:R:3 unique_starting_index=38 config_type=initial n_minim_iter=3 stress="0.0015956351416933018 -0.03803416659652616 -0.011575573649775009 -0.03803416659652616 -0.012641499393327394 0.00961006087929516 -0.011575573649775009 0.00961006087929516 0.0021991070115381815" pbc="T T T"
Si       4.43182785       2.34421876       2.41255170
Si       0.80615722       0.56052953       3.05849591
Si      -0.40265494      -0.89551683       3.05849591
Si       3.22301569       0.88817240       2.41255170
Si       5.45698324      -3.04780508       6.91518020
Si       0.02947633       6.25184751      -1.44413258
Si      -1.42781033       4.49650701      -1.44413258
Si       3.99969658      -4.80314558       6.91518020
8
Lattice="11.653525384762913 -4.721816433623504 8.029191584975 -6.785101236808395 10.585962664417043 -8.029191584975791 -0.6947664806581743 -4.376163797532587 5.506692724767078" Properties=species:S:1:pos:R:3 unique_starting_index=38 config_type=initial n_minim_iter=4 stress="-0.0013716268406912396 -0.006662347434244351 7.105624336493163e-05 -0.006662347434244351 -0.003865509189861249 -5.89910137718626e-05 7.105624336493163e-05 -5.89910137718626e-05 -0.005504232555040426" pbc="T T T"
Si       4.49925658       2.49167802       2.46586743
Si       0.92666311       0.50469106       3.04082368
Si      -0.32560027      -1.00369346       3.04082368
Si       3.24699319       0.98329350       2.46586743
Si       5.34256138      -2.90404854       7.09707939
Si       0.33631261       6.20510779      -1.59038828
Si      -1.16890508       4.39203310      -1.59038828
Si       3.83734369      -4.71712323       7.09707939
8
Lattice="11.064371918050668 -4.069328238949246 8.310021925573919 -6.035364177569585 10.126901673337665 -8.310021925577809 -0.7992000756419186 -4.452834837082727 6.084592778753205" Properties=species:S:1:pos:R:3 unique_starting_index=38 config_type=initial n_minim_iter=5 stress="0.015709960240392694 0.014445412068385321 0.00037848063556874 0.014445412068385321 0.021117237260923363 -0.00031421526566999925 0.00037848063556874 -0.00031421526566999925 -0.0022399559776983976" pbc="T T T"
Si       4.52961521       2.72162093       2.67003799
Si       1.04266293       0.50016253       3.41455312
Si      -0.29980876      -1.11688029       3.41455312
Si       3.18714352       1.10457811       2.67003799
Si       5.12563159      -2.69225082       7.65254674
Si       0.64055368       6.14760056      -1.56795563
Si      -0.89582514       4.29699146      -1.56795563
Si       3.58925277      -4.54285993       7.65254674
8
Lattice="10.412021884829837 -3.5503997394319686 8.603491523290506 -5.405281102550561 9.581152031098833 -8.603491523330566 -0.8123792504926308 -4.419239859185948 6.710514214530835" Properties=species:S:1:pos:R:3 unique_starting_index=38 config_type=initial n_minim_iter=6 stress="0.027859588101132596 0.02608450930779696 -0.0036919040216435426 0.02608450930779696 0.037623668704163636 0.0030650249810078114 -0.0036919040216435426 0.0030650249810078114 0.003515879684395777" pbc="T T T"
Si       4.45604027       2.80743422       2.90769934
Si       1.12736797       0.47722512       3.80281314
Si      -0.26167983      -1.19591986       3.80281314
Si       3.06699248       1.13428924       2.90769934
Si       4.88378673      -2.51897677       8.23785147
Si       0.81991604       5.94853405      -1.52733899
Si      -0.68942628       4.13049113      -1.52733899
Si       3.37444441      -4.33701970       8.23785147
8
Lattice="10.036556295545656 -3.3524974569896338 8.974239611238424 -5.1416829193936255 9.248502486053338 -8.974239611584684 -0.727468332959229 -4.375923160619832 7.117449780686805" Properties=species:S:1:pos:R:3 unique_starting_index=38 config_type=initial n_minim_iter=7 stress="0.024302489862031557 0.026764757711751432 -0.0025206255792759157 0.026764757711751432 0.03432120436692321 0.0020926276307173257 -0.0025206255792759157 0.0020926276307173257 0.004057728512244894" pbc="T T T"
Si       4.37328303       2.76588974       3.08786673
Si       1.18666823       0.43155415       4.02958125
Si      -0.20587902      -1.24580601       4.02958125
Si       2.98073578       1.08852958       3.08786673
Si       4.77753314      -2.47946966       8.68142352
Si       0.85133969       5.75993141      -1.56397555
Si      -0.61012913       3.99955339      -1.56397555
Si       3.31606432      -4.23984768       8.68142352
8
Lattice="9.795708951929585 -3.4174267519783323 9.305955844075541 -5.1611958089168715 8.999820971040064 -9.305955858780033 -0.5520281455444332 -4.256692749356774 7.3662046926657245" Properties=species:S:1:pos:R:3 unique_starting_index=38 config_type=initial n_minim_iter=8 stress="0.0038232836251263108 0.0033075530201606817 -0.0021120408785462318 0.0033075530201606817 0.0050613830994441986 0.001753419977936305 -0.0021120408785462318 0.001753419977936305 0.00429869356920753" pbc="T T T"
Si       4.21726255       2.57838076       3.21259506
Si       1.20650259       0.36293134       4.15360775
Si      -0.13477859      -1.25267748       4.15360775
Si       2.87598137       0.96277194       3.21259506
Si       4.73441616      -2.53858106       9.00511951
Si       0.71624932       5.51229532      -1.63891670
Si      -0.65193220       3.86428433      -1.63891670
Si       3.36623464      -4.18659205       9.00511951
8
Lattice="9.851688848607784 -3.482486091462145 9.304488761101787 -5.235443166622169 9.042876778373733 -9.30448896582776 -0.5307705125266502 -4.255756349088688 7.265746820406756" Properties=species:S:1:pos:R:3 unique_starting_index=38 config_type=initial n_minim_iter=9 stress="-0.0044584979555816195 0.0030998041211712088 0.004496908813061913 0.0030998041211712088 -0.003298162763420338 -0.003733340270595171 0.004496908813061913 -0.003733340270595171 -0.004953599316301876" pbc="T T T"
Si       4.21351799       2.55325937       3.17644044
Si       1.20375644       0.35556567       4.08930424
Si      -0.12804387      -1.24862322       4.08930430
Si       2.88171768       0.94907049       3.17644050
Si       4.76397644      -2.57050045       8.93567729
Si       0.68242682       5.51441195      -1.66993261
Si      -0.67850232       3.87513661      -1.66993255
Si       3.40304730      -4.20977579       8.93567735
8
Lattice="10.02596137812146 -3.6414457355286896 9.104752432007341 -5.4237500080492635 9.184932150180837 -9.104753359905018 -0.5394943873840865 -4.234236294321641 7.052955020503268" Properties=species:S:1:pos:R:3 unique_starting_index=38 config_type=initial n_minim_iter=10 stress="-0.005098822820551678 -0.004946342567354011 0.0007037460899454935 -0.004946342567354011 -0.0069503552650888485 -0.0005842444929377513 0.0007037460899454935 -0.0005842444929377513 -0.0009663721924499948" pbc="T T T"
Si       4.21097415       2.51949718       3.08372155
Si       1.16231443       0.36837457       3.96923045
Si      -0.14825826      -1.21024521       3.96923071
Si       2.90040146       0.94087740       3.08372182
Si       4.81151696      -2.61691722       8.71801893
Si       0.60529848       5.55721823      -1.66506694
Si      -0.74880107       3.92616918      -1.66506667
Si       3.45741741      -4.24796626       8.71801920
8
Lattice="10.079288280871474 -3.643580238582344 9.064677460448229 -5.435657327228627 9.23695946956182 -9.06468137253525 -0.5624773442263685 -4.257296804333674 6.998514439363209" Properties=species:S:1:pos:R:3 unique_starting_index=38 config_type=initial n_minim_iter=11 stress="0.0022235372515240215 0.0039836635056974355 0.0008278486973699061 0.0039836635056974355 0.00371476665796439 -0.0006872608171414491 0.0008278486973699061 -0.0006872608171414491 -0.0012189629619668455" pbc="T T T"
Si       4.23926343       2.54435338       3.06835828
Si       1.15855856       0.37769493       3.93014932
Si      -0.15811091      -1.20826910       3.93015043
Si       2.92259396       0.95838935       3.06835938
Si       4.82548482      -2.61695461       8.65988440
Si       0.62113018       5.59777542      -1.66137684
Si      -0.74433230       3.95303889      -1.66137569
Si       3.46002234      -4.26169114       8.65988555
8
Lattice="10.092393526714964 -3.5619020327894604 9.10073644339072 -5.357768963872061 9.26490846773486 -9.100778606973787 -0.6071004972943751 -4.312852165960327 7.05863111731185" Properties=species:S:1:pos:R:3 unique_starting_index=38 config_type=initial n_minim_iter=12 stress="0.006850201835347414 -0.00047962638627567576 -0.005534818434215826 -0.00047962638627567576 0.0066711784900381965 0.004595304592144159 -0.005534818434215826 0.004595304592144159 0.006749042504516231" pbc="T T T"
Si       4.30085346       2.60578470       3.15141113
Si       1.16298088       0.39400111       3.90716409
Si      -0.17333047      -1.21562857       3.90717599
Si       2.96454211       0.99615502       3.15142303
Si       4.81151056      -2.60973275       8.71490538
Si       0.67718879       5.63946926      -1.65633037
Si      -0.68398757       3.99988888      -1.65631825
Si       3.45033420      -4.24931313       8.71491750
8
Lattice="10.205200395686447 -3.5291243193603976 9.161879448199628 -5.346149764515089 9.382239556669346 -9.162306398783356 -0.6491310963215505 -4.404828123321765 7.013756292038748" Properties=species:S:1:pos:R:3 unique_starting_index=38 config_type=initial n_minim_iter=13 stress="0.009682399366495512 0.0016990437381879467 -0.006328219313974065 0.0016990437381879467 0.010324733398617732 0.005256709909151514 -0.006328219313974065 0.005256709909151514 0.007474308418462903" pbc="T T T"
Si       4.39699477       2.66871708       3.22048876
Si       1.16505446       0.40832162       3.79271993
Si      -0.18707631      -1.22042808       3.79283874
Si       3.04486400       1.03996738       3.22060757
Si       4.83897273      -2.63939275       8.70300134
Si       0.72556883       5.71943365      -1.68979287
Si      -0.62905427       4.08768175      -1.68967384
Si       3.48434963      -4.27114466       8.70312037
8
Lattice="10.35435996793896 -3.5668296083108495 9.280446648349226 -5.409218069947615 9.525873606615221 -9.284387560446152 -0.6530686178167154 -4.491780182685322 6.930298982632108" Properties=species:S:1:pos:R:3 unique_starting_index=38 config_type=initial n_minim_iter=14 stress="0.005758930162545253 0.005360025882495434 -0.000882443169921615 0.005360025882495434 0.007825386783331398 0.000755579624476276 -0.000882443169921615 0.000755579624476276 0.00023358221573431472" pbc="T T T"
Si       4.47977906       2.68859195       3.27785635
Si       1.16478306       0.40846463       3.64742202
Si      -0.18770687      -1.22132622       3.64849985
Si       3.12728914       1.05880110       3.27893419
Si       4.89559965      -2.70302332       8.68557301
Si       0.73652640       5.78509405      -1.76028473
Si      -0.60352746       4.17028905      -1.75921680
Si       3.55554579      -4.31782832       8.68664093
8
Lattice="10.427003692365606 -3.6638133006853932 9.349653605203502 -5.485130204126977 9.670712115202644 -9.43223902831036 -0.6349078551942269 -4.5633992149086025 6.926175205095007" Properties=species:S:1:pos:R:3 unique_starting_index=38 config_type=initial n_minim_iter=15 stress="0.002951872758033008 0.004538603275326057 0.0009041674077399836 0.004538603275326057 0.007096752937049566 -0.00018338246234059295 0.0009041674077399836 -0.00018338246234059295 -0.0018551687457955676" pbc="T T T"
Si       4.49711032       2.66700952       3.28834404
Si       1.14353154       0.39759074       3.53295628
Si      -0.19014578      -1.22350797       3.55524384
Si       3.16343299       1.04591080       3.31063160
Si       4.91439167      -2.78308916       8.67637212
Si       0.70913232       5.82688248      -1.85478573
Si      -0.60742714       4.22659071      -1.83278424
Si       3.59783221      -4.38338094       8.69837362
8
Lattice="10.27662208663542 -3.7855416483092554 9.39716532253448 -5.479081273908362 9.775235594575374 -9.717882452228613 -0.5821625268377395 -4.640870790472366 7.117348207578618" Properties=species:S:1:pos:R:3 unique_starting_index=38 config_type=initial n_minim_iter=16 stress="-0.004835086525841587 0.00028063156310118844 -0.0004031657546127134 0.00028063156310118844 0.006418888735932968 0.0026189327367787097 -0.0004031657546127134 0.0026189327367787097 0.003955842086027511" pbc="T T T"
Si       4.41146698       2.59457865       3.25590353
Si       1.09664708       0.36821882       3.45430573
Si      -0.19608979      -1.24575353       3.54072560
Si       3.11873010       0.98060630       3.34232340
Si       4.82992338      -2.87383477       8.71227969
Si       0.66265299       5.81723355      -2.00103174
Si      -0.61454619       4.22265989      -1.91565056
Si       3.55272419      -4.46840843       8.79766086
8
Lattice="12.981087362913097 -1.715637157219229 11.164062573348494 -6.674602601814618 5.146574133767592 -4.855458250525163 -0.21129027411265508 -1.4286157872954417 2.909470723891756" Properties=species:S:1:pos:R:3 unique_starting_index=38 config_type=initial n_minim_iter=17 stress="-0.13122067380377894 0.007541580386088247 0.014060944512744167 0.007541580386088247 0.005516630853606185 -0.0004660887797158761 0.014060944512744167 -0.0004660887797158761 0.007015553389872689" pbc="T T T"
Si       5.67297237       2.05719405       6.37063319
Si       2.36888037       1.00417559       4.79475474
Si       0.42222078      -0.05487183       2.84744089
Si       3.72631277       0.99814663       4.42331933
Si       7.55807774      -0.46527556      10.00576233
Si       0.46037768       3.51391627       1.13622040
Si      -1.46288459       2.46759778      -0.78768826
Si       5.63481547      -1.51159405       8.08185367
8
Lattice="-1.9584392575031466 -19.83597603946386 10.21691090134062 2.257367902742371 50.340690630004 -59.588383284574824 -4.019523834567107 -33.02780691680887 46.09432574639739" Properties=species:S:1:pos:R:3 unique_starting_index=38 config_type=initial n_minim_iter=18 stress="0.001844854129265392 0.00025611679213482114 -0.0006249345063454765 0.00025611679213482114 -0.000283662834491444 -0.000537488599686515 -0.0006249345063454765 -0.000537488599686515 -0.00017879012686687832" pbc="T T T"
Si      -2.51489085      -3.99448991      -0.51220173
Si      -1.29147773      -7.28153911      11.40157040
Si      -1.20570389       1.47140770      -2.76495689
Si      -2.42911701       4.75845690     -14.67872901
Si       3.89997864       8.44744912      -9.92807204
Si      -7.70533750     -19.62044003      20.65067492
Si      -7.62057337     -10.97053133       6.65091343
Si       3.98474276      17.09735782     -23.92783353
8
Lattice="-959948921582.2986 1512845662856.1165 27054126530.397713 4112338660117.716 -5791896018379.524 1267202038345.2998 -3010041131704.7324 4204446856478.818 -997696032730.8132" Properties=species:S:1:pos:R:3 unique_starting_index=38 config_type=initial n_minim_iter=19 stress="-0.0 -0.0 -0.0 -0.0 -0.0 -0.0 -0.0 -0.0 -0.0" pbc="T T T"
Si 859272146727.96203613 -1107064914108.00024414 471844233021.01672363
Si -716922719559.97033691 1032460259383.46105957 -175283848696.98367310
Si -716922713438.51281738 1032460251074.20263672 -175283846183.73635864
Si 859272152849.42834473 -1107064922417.27221680 471844235534.26788330
Si -716922714354.63891602 1032460252272.28234863 -175283846632.96197510
Si 859272151015.55651855 -1107064919882.50683594 471844234854.44677734
Si 859272147644.07714844 -1107064915306.06445312 471844233470.24072266
Si -716922717726.10253906 1032460256848.70263672 -175283848017.16442871
