20
Lattice="22.34981970521772 -5.043134216083971 -5.246767351884546 -5.890070253069145 22.14169632144487 -5.246767351884532 -5.890070253069131 -6.118667378250711 21.916778804154074" Properties=species:S:1:pos:R:3 unique_starting_index=58 config_type=initial n_minim_iter=1 energy=-3170.979355598887 free_energy=-3170.979355598887 pbc="T T T"
Si       2.21623869      11.70247686       8.64347139
Si      11.60965314       8.53146423       2.99989134
Si       8.08344317       2.52570824      12.03528232
Si       2.48623602      -0.94603813       8.42335276
Si       8.35344049       2.80618433      -0.61203822
Si      -1.03997396       8.31988867       2.77977271
Si       8.48960586      17.05554523      -8.28180228
Si      16.72009152      -8.63663595       8.79774622
Si      -9.26671238       8.14283248      16.71453263
Si      19.83639156      -5.39939045       2.62549788
Si       2.08007332      19.92999367      -5.29128852
Si      -6.15041234       1.84733922      19.70504638
Si      10.59374218      -5.08838326      11.14293320
Si      -5.48787363      10.72304623      10.82513282
Si      10.92413526      11.01747484      -4.64354336
Si      -0.35445607      16.05569477       0.59811128
Si      -0.02406300      -0.35562949      16.06678746
Si      16.05755281       0.58748111       0.28031091
Si       2.22971555       2.31625215       2.40977844
Si       8.33996363       8.66364259       9.01346566
20
Lattice="8.51923664539957 -1.6561323197838291 -1.7230041108423906 -1.9791576849428034 8.450035629456409 -1.7230041108423744 -1.9791576849427954 -2.0559699703010463 8.375251207353909" Properties=species:S:1:pos:R:3 unique_starting_index=58 config_type=initial n_minim_iter=2 stress="0.0023026561474290153 0.004361709309483087 0.0045378276728029725 0.004361709309483087 0.0026348927824158563 0.00471394346022236 0.0045378276728029725 0.00471394346022236 0.003008187380031196" pbc="T T T"
Si       1.26457177       4.80032904       3.72070765
Si       4.74872427       3.66057166       1.59241923
Si       3.47719270       1.39791956       4.94377567
Si       1.08372857      -0.14666470       3.33682375
Si       3.29634949       1.21005772      -0.01453269
Si      -0.18780300       3.29158674       1.20853534
Si       3.46932839       6.67386583      -2.77144992
Si       6.53699509      -2.91648907       3.60824693
Si      -3.16316119       3.35137275       6.55899164
Si       7.72408245      -1.68333014       1.32099606
Si       1.09159287       7.77125634      -1.62974865
Si      -1.97607382       1.01712432       7.70069290
Si       4.25758085      -1.55997750       4.48753028
Si      -1.72088240       4.31804192       4.36938557
Si       4.38040699       4.42749800      -1.38121270
Si       0.18051428       6.29323294       0.55985742
Si       0.30334042       0.19219806       6.31045569
Si       6.28180367       0.54280661       0.44171271
Si       0.96214435       0.99948575       1.03984327
Si       3.59877692       3.73844760       3.88939972
20
Lattice="8.478996356636943 -1.649829726187113 -1.7164470292937908 -1.971328192124019 8.410064357673594 -1.7164470292938325 -1.9713281921240338 -2.0478366102154073 8.335570653677216" Properties=species:S:1:pos:R:3 unique_starting_index=58 config_type=initial n_minim_iter=3 stress="-0.0024927328296606936 0.0051961479543190334 0.0054059595232131205 0.0051961479543190334 -0.002096936001222341 0.005615768023411246 0.0054059595232131205 0.005615768023411246 -0.001652226410987277" pbc="T T T"
Si       1.25619226       4.77565983       3.70079588
Si       4.72439184       3.64104391       1.58232644
Si       3.45860514       1.38882605       4.91833799
Si       1.07773483      -0.14714202       3.32035016
Si       3.28014771       1.20344258      -0.01566140
Si      -0.18805187       3.27536373       1.20188072
Si       3.45162912       6.64141744      -2.76063932
Si       6.50524381      -2.90493834       3.58976808
Si      -3.15041043       3.33414626       6.52699636
Si       7.68675040      -1.67757678       1.31290852
Si       1.08471085       7.73363511      -1.62431977
Si      -1.96890384       1.01051037       7.66331592
Si       4.23623338      -1.55479614       4.46495435
Si      -1.71489235       4.29631984       4.34737412
Si       4.35847268       4.40529967      -1.37692859
Si       0.17786729       6.26253861       0.55530248
Si       0.30010659       0.18942599       6.27960518
Si       6.25123232       0.53840610       0.43772225
Si       0.95694210       0.99408160       1.03422091
Si       3.57939786       3.71831642       3.86845568
20
Lattice="8.359110157317142 -2.002145419755779 -2.0829886281029233 -2.3188260141003236 8.276856578456652 -2.0829886281028145 -2.3188260141002703 -2.4088210290736094 8.187965418529858" Properties=species:S:1:pos:R:3 unique_starting_index=58 config_type=initial n_minim_iter=4 stress="-0.0437936185626308 0.0027453870191506647 0.002856241052325755 0.0027453870191506647 -0.04358449913714219 0.002967093464154716 0.002856241052325755 0.002967093464154716 -0.04334953663278408" pbc="T T T"
Si       0.64635549       4.22315298       3.06084736
Si       4.19549443       3.02653829       0.92707901
Si       2.86467349       0.75592691       4.34094498
Si       0.85678463      -0.44174882       3.09490916
Si       3.07510263       0.97452293      -0.31895682
Si      -0.47403631       3.05927811       0.96114081
Si       3.07450782       6.31001523      -3.27705870
Si       6.18843418      -3.40554488       3.18018094
Si      -3.63859716       2.93815867       6.17542215
Si       7.36005528      -2.18845247       0.84180722
Si       0.64695030       7.39003077      -2.15343399
Si      -2.46697605       0.55346307       7.29904687
Si       3.86911057      -2.07111484       4.06190643
Si      -2.21686503       3.90887914       3.94522375
Si       3.99041675       4.02389307      -1.90878912
Si      -0.26895863       5.93238496       0.07676441
Si      -0.14765244      -0.27477705       5.93077728
Si       5.93832316       0.07840512      -0.03991827
Si       0.78309238       0.81348466       0.84633178
Si       2.93836574       3.05240547       3.17565638
20
Lattice="8.411811864402962 -2.220571008983386 -2.3102338691122477 -2.5390990829002877 8.321207261886071 -2.310233869112361 -2.53909908290062 -2.637643026514985 8.223290709316375" Properties=species:S:1:pos:R:3 unique_starting_index=58 config_type=initial n_minim_iter=5 stress="-0.04751702869526719 -0.009271478634023715 -0.009645845086893567 -0.009271478634023715 -0.04822324835460515 -0.010020206064280179 -0.009645845086893567 -0.010020206064280179 -0.04901674297808335" pbc="T T T"
Si       0.32924079       3.99059261       2.73768817
Si       3.97517129       2.71651944       0.58881291
Si       2.56326430       0.42710295       4.09578131
Si       0.77034939      -0.61268350       3.01401006
Si       3.00437291       0.88533124      -0.49295834
Si      -0.64155760       2.98211696       0.86513480
Si       2.91112431       6.21144061      -3.58073210
Si       6.09614901      -3.70237272       3.00128055
Si      -3.93169776       2.76349379       6.06491025
Si       7.26531145      -2.48783439       0.60154242
Si       0.42248938       7.28666952      -2.46208728
Si      -2.76253532       0.31758288       7.18355507
Si       3.72577672      -2.38089681       3.90015327
Si      -2.52096757       3.75338578       3.78392588
Si       3.84660957       3.87497833      -2.22472810
Si      -0.51299588       5.83928805      -0.18110291
Si      -0.39216303      -0.52830356       5.82755107
Si       5.85458127      -0.16947210      -0.29733029
Si       0.70001049       0.72717832       0.75654053
Si       2.63360320       2.73581491       2.84628244
20
Lattice="8.35755929505772 -2.052109292678065 -2.134969956770657 -2.368694667043802 8.273405314249725 -2.134969956768714 -2.3686946670340028 -2.4606251140486557 8.182460281509554" Properties=species:S:1:pos:R:3 unique_starting_index=58 config_type=initial n_minim_iter=6 stress="0.0157416670616198 -0.005493231795744286 -0.005715039101730119 -0.005493231795744286 0.015323241000474181 -0.005936843163878872 -0.005715039101730119 -0.005936843163878872 0.014853105646992939" pbc="T T T"
Si       0.56755508       4.17284249       2.86325917
Si       4.14821937       2.83229594       0.83866680
Si       2.67237106       0.66974542       4.28285655
Si       0.94779890      -0.49233476       3.07385357
Si       3.05261487       1.06474672      -0.37033619
Si      -0.52804942       3.03471692       1.04926119
Si       3.03671506       6.25337545      -3.22592517
Si       6.13327374      -3.35287196       3.14231425
Si      -3.58386310       2.90242309       6.12084975
Si       7.20403305      -2.24055585       0.77020612
Si       0.58345489       7.23147716      -2.20832938
Si      -2.51310379       0.48816483       7.13844554
Si       3.82653846      -2.15305272       4.00892736
Si      -2.29712334       3.85774802       3.89750379
Si       3.94237714       3.97946048      -1.99275889
Si      -0.32220718       5.90931185       0.01501658
Si      -0.20636850      -0.33030044       5.90527926
Si       5.91729330       0.01884555      -0.09640699
Si       0.75659782       0.78596184       0.81769763
Si       2.86357213       2.97470907       3.09482273
20
Lattice="8.125695575509146 -1.9127657760991212 -1.9899999873439047 -2.220627829049635 8.047012709343832 -1.9899999873744896 -2.220627829211017 -2.3068117143119378 7.961980482609318" Properties=species:S:1:pos:R:3 unique_starting_index=58 config_type=initial n_minim_iter=7 stress="0.0035799891180449852 -0.001232377561178437 -0.0012821388688140395 -0.001232377561178437 0.003486117436338092 -0.0013318994416155574 -0.0012821388688140395 -0.0013318994416155574 0.0033806450306140094" pbc="T T T"
Si       0.67734048       4.16659682       2.83758137
Si       4.13780002       2.80230727       0.94703335
Si       2.64280066       0.77848420       4.27559987
Si       1.04163925      -0.41401733       3.03494716
Si       3.00709943       1.15692163      -0.29361936
Si      -0.45336010       2.99201307       1.14439914
Si       3.03201132       6.12160337      -2.93367637
Si       6.00177614      -3.06046761       3.14416899
Si      -3.28666605       2.90903486       6.00074329
Si       6.97110596      -2.05351753       0.83781152
Si       0.65242859       7.00100810      -2.01876278
Si      -2.31733623       0.56464446       6.91565688
Si       3.78719429      -1.98118834       3.96554267
Si      -2.12388611       3.81569399       3.86303814
Si       3.89376052       3.93823619      -1.82274553
Si      -0.20932061       5.80456492       0.11894237
Si      -0.10275438      -0.21338582       5.80472604
Si       5.80832602       0.11838472       0.01643784
Si       0.76689373       0.79665733       0.82882499
Si       2.91754618       3.03077789       3.15315552
20
Lattice="8.056331464849203 -1.876001855938165 -1.9517516026113808 -2.1812506831923475 7.979098012582347 -1.951751602487748 -2.1812506825399423 -2.265906317128173 7.895632209499066" Properties=species:S:1:pos:R:3 unique_starting_index=58 config_type=initial n_minim_iter=8 stress="-0.0034845339285529383 0.00047516026126499523 0.0004943464722199348 0.00047516026126499523 -0.0034483403847488407 0.0005135323622218675 0.0004943464722199348 0.0005135323622218675 -0.003407673941332756" pbc="T T T"
Si       0.70196389       4.15687977       2.81894226
Si       4.12715289       2.78272389       0.97051269
Si       2.62363668       0.80239559       4.26515300
Si       1.07019342      -0.39287799       3.02161631
Si       2.99186620       1.18491633      -0.27302399
Si      -0.43332280       2.97753193       1.17318675
Si       3.02586355       6.07772229      -2.84761240
Si       5.95816082      -2.97416189       3.13976677
Si      -3.19876294       2.90623048       5.96030158
Si       6.89259303      -2.00346381       0.85236223
Si       0.66796655       6.92303003      -1.96817257
Si      -2.26433073       0.58221243       6.83974140
Si       3.77163576      -1.93579946       3.94560320
Si      -2.07793799       3.79631689       3.84844024
Si       3.87264876       3.92186233      -1.77818107
Si      -0.17881867       5.76914216       0.14368877
Si      -0.07780567      -0.18191158       5.77031007
Si       5.77176808       0.14195918       0.04652581
Si       0.76778181       0.79757988       0.82978479
Si       2.92604829       3.03960996       3.16234422
20
Lattice="8.013890340726704 -1.858316962880025 -1.9333526262261709 -2.1619633781968464 7.937360686087807 -1.933352627186298 -2.1619633832759506 -2.2458704667479212 7.85465548476142" Properties=species:S:1:pos:R:3 unique_starting_index=58 config_type=initial n_minim_iter=9 stress="-0.008724325497068709 -4.6639871280531736e-05 -4.852353230622524e-05 -4.6639871280531736e-05 -0.008727878221319072 -5.0406837696041675e-05 -4.852353230622524e-05 -5.0406837696041675e-05 -0.0087318705722805" pbc="T T T"
Si       0.70854136       4.14065419       2.78497821
Si       4.11068874       2.74855084       0.97511947
Si       2.59011497       0.80770113       4.24759637
Si       1.09984860      -0.37914179       3.01283076
Si       2.98142222       1.21419524      -0.25964614
Si      -0.42072517       2.96756016       1.20297202
Si       3.01631204       6.04176870      -2.77812553
Si       5.92259679      -2.90429767       3.13161156
Si      -3.12759584       2.89938248       5.92712529
Si       6.81755941      -1.97460102       0.85633867
Si       0.67365154       6.84815853      -1.93917506
Si      -2.23263322       0.58910875       6.76607576
Si       3.75872296      -1.91135354       3.92064886
Si      -2.05301834       3.77185580       3.83548924
Si       3.84725700       3.90797311      -1.75474157
Si      -0.15729342       5.74115493       0.15246099
Si      -0.06875939      -0.16002620       5.74269180
Si       5.74298191       0.14991568       0.06730137
Si       0.76598565       0.79571401       0.82784358
Si       2.92397793       3.03745925       3.16010666
20
Lattice="8.018882063140072 -1.8225885747520107 -1.8961815761164578 -2.1264508465829643 7.943708549877332 -1.8961815722378534 -2.1264508260537136 -2.208979644194636 7.8624690419019245" Properties=species:S:1:pos:R:3 unique_starting_index=58 config_type=initial n_minim_iter=10 stress="0.002960621539398602 0.0028721095588487085 0.0029880819763854084 0.0028721095588487085 0.003179393964538465 0.003104051498475358 0.0029880819763854084 0.003104051498475358 0.003425204472454097" pbc="T T T"
Si       0.76333534       4.17979965       2.82769146
Si       4.14772048       2.78900540       1.03300943
Si       2.62913087       0.86402079       4.28840110
Si       1.13684952      -0.33871925       3.03709646
Si       3.00264504       1.25203127      -0.21829520
Si      -0.38174010       2.99028315       1.24241443
Si       3.04902774       6.06409188      -2.69283531
Si       5.94365872      -2.82040126       3.16850130
Si      -3.04456178       2.93528433       5.95280543
Si       6.81054217      -1.91987355       0.90160459
Si       0.71695263       6.84278534      -1.88269954
Si      -2.17767832       0.63453425       6.76294120
Si       3.79214448      -1.85249187       3.94211067
Si      -1.99547127       3.79189084       3.87194793
Si       3.86508738       3.94209793      -1.69507688
Si      -0.09910700       5.76185413       0.19815796
Si      -0.02616409      -0.10017531       5.76518278
Si       5.76145166       0.19324528       0.12799522
Si       0.78199377       0.81234342       0.84514446
Si       2.98398661       3.09979691       3.22496143
20
Lattice="8.042294195186084 -1.8460448235144182 -1.9205849898947192 -2.1507811311603287 7.9662109975621105 -1.9205850047443436 -2.150781209791485 -2.234254311911492 7.88398823326917" Properties=species:S:1:pos:R:3 unique_starting_index=58 config_type=initial n_minim_iter=11 stress="0.006803714137616686 -0.001585384041935734 -0.0016494040454821093 -0.001585384041935734 0.006682952318821738 -0.001713419302484247 -0.0016494040454821093 -0.001713419302484247 0.006547260228062307" pbc="T T T"
Si       0.73731616       4.15857736       2.80200436
Si       4.12750384       2.76439913       1.00520607
Si       2.60531182       0.83707555       4.26617905
Si       1.13542000      -0.34380925       3.03761217
Si       3.00341570       1.25063009      -0.22336081
Si      -0.38677198       2.99086270       1.24081388
Si       3.03492256       6.06113884      -2.70288054
Si       5.94124459      -2.82987652       3.15390752
Si      -3.05393833       2.92081170       5.94945711
Si       6.79467015      -1.94332900       0.88891073
Si       0.70580936       6.82647743      -1.90663888
Si      -2.20051279       0.62251314       6.74569877
Si       3.78925035      -1.87318759       3.92051389
Si      -2.01604185       3.77045660       3.86741661
Si       3.84445162       3.93841582      -1.71661084
Si      -0.10371973       5.75699708       0.17540162
Si      -0.04851854      -0.10564283       5.75942908
Si       5.75677369       0.17069651       0.12230436
Si       0.77735677       0.80752645       0.84013297
Si       2.96337508       3.07838541       3.20268527
20
Lattice="8.03073743265548 -1.819024375277575 -1.8924732614819055 -2.1233403732033738 7.955691095588319 -1.8924731683234717 -2.1233398797334258 -2.2057479253507273 7.874589626288803" Properties=species:S:1:pos:R:3 unique_starting_index=58 config_type=initial n_minim_iter=12 stress="0.012615677695987159 -0.00023067025554441228 -0.00023995986851768 -0.00023067025554441228 0.012598114164049061 -0.00024926830268269827 -0.00023995986851768 -0.00024926830268269827 0.01257841631998181" pbc="T T T"
Si       0.77273362       4.15774121       2.83838504
Si       4.12532016       2.79935173       1.04197811
Si       2.64032232       0.87385224       4.26678344
Si       1.14373502      -0.29795053       3.04766507
Si       3.01132348       1.25925214      -0.17714026
Si      -0.34126308       3.00050961       1.25125819
Si       3.03793038       6.05665231      -2.62368499
Si       5.93664708      -2.75085520       3.15987423
Si      -2.97479910       2.92683640       5.94810834
Si       6.75885642      -1.89673544       0.92976888
Si       0.74612636       6.79217318      -1.85846509
Si      -2.15258962       0.66468514       6.71332822
Si       3.80496190      -1.81145413       3.90127622
Si      -1.95495107       3.75051959       3.88469145
Si       3.82220361       3.95329117      -1.65568684
Si      -0.03814672       5.74171626       0.20495180
Si      -0.02090445      -0.03897019       5.74533003
Si       5.73900824       0.19765370       0.18836692
Si       0.78887036       0.81948691       0.85257652
Si       2.99518682       3.11143189       3.23706668
20
Lattice="7.996412931664183 -1.8166397120890347 -1.8899964492351051 -2.119652107624785 7.921479749043168 -1.8899982107181597 -2.119661441078621 -2.2019274491953933 7.840488387830156" Properties=species:S:1:pos:R:3 unique_starting_index=58 config_type=initial n_minim_iter=13 stress="0.007989942564375671 -0.0007262777044012683 -0.0007559464634658891 -0.0007262777044012683 0.007934498623443038 -0.0007853500385335042 -0.0007559464634658891 -0.0007853500385335042 0.007871575839531372" pbc="T T T"
Si       0.76463386       4.09269757       2.86151273
Si       4.06063575       2.82289028       1.03232537
Si       2.66630357       0.86673365       4.20269671
Si       1.09079277      -0.26221340       3.02816860
Si       2.99246680       1.20555614      -0.14220265
Si      -0.30353462       2.98307352       1.19898042
Si       2.98844146       6.01067882      -2.59492360
Si       5.89258621      -2.72008945       3.10983643
Si      -2.94238195       2.87853549       5.90329209
Si       6.69947864      -1.88188093       0.95065884
Si       0.76866607       6.73361160      -1.84279940
Si      -2.13549230       0.68788224       6.65541682
Si       3.78450864      -1.76761881       3.82298916
Si      -1.91036903       3.67304162       3.86283060
Si       3.74309264       3.92981451      -1.61498318
Si       0.01401199       5.67210900       0.19766215
Si      -0.02741448       0.01297176       5.67547690
Si       5.66746836       0.18841969       0.23750556
Si       0.78907707       0.81970120       0.85279685
Si       2.96802230       3.08321139       3.20769688
20
Lattice="7.984701390176648 -1.822452723280378 -1.89602398597612 -2.1250103514211456 7.909567500423381 -1.8960167035389328 -2.1249717571550515 -2.207440327171309 7.828418545605095" Properties=species:S:1:pos:R:3 unique_starting_index=58 config_type=initial n_minim_iter=14 stress="0.00641279898841109 -0.00019673385958540604 -0.00020338120250802417 -0.00019673385958540604 0.006398392655120086 -0.0002110247903613526 -0.00020338120250802417 -0.0002110247903613526 0.006385114404853697" pbc="T T T"
Si       0.75329556       4.06532182       2.87165821
Si       4.03369250       2.83346444       1.02039724
Si       2.67790515       0.85584089       4.17578779
Si       1.05682665      -0.25893816       3.01597964
Si       2.98141854       1.17113098      -0.13941132
Si      -0.29898057       2.97220339       1.16472200
Si       2.96475611       5.99360651      -2.61107548
Si       5.87644784      -2.73527193       3.08496216
Si      -2.95692369       2.85433149       5.88567526
Si       6.69165408      -1.88842748       0.95140934
Si       0.76992944       6.72582556      -1.84929314
Si      -2.14170596       0.68895921       6.64745543
Si       3.77132379      -1.76338423       3.79505766
Si      -1.90563604       3.64562166       3.84876096
Si       3.71547559       3.91554689      -1.61185678
Si       0.01922201       5.64518462       0.18762095
Si      -0.03658306       0.01786866       5.64823468
Si       5.64035553       0.17818576       0.24131610
Si       0.78656888       0.81709788       0.85010117
Si       2.94815040       3.06257658       3.18627669
20
Lattice="7.973812671708333 -1.8292435082339975 -1.9031449048390572 -2.131395212003306 7.898394876804888 -1.903162665068892 -2.1314893552427914 -2.214220662451437 7.816774774284673" Properties=species:S:1:pos:R:3 unique_starting_index=58 config_type=initial n_minim_iter=15 stress="0.003112666865686031 -0.0005395530271268075 -0.0005642617003865662 -0.0005395530271268075 0.0030700989776240696 -0.0005867304621766528 -0.0005642617003865662 -0.0005867304621766528 0.0030149566199659163" pbc="T T T"
Si       0.74005869       4.04630743       2.86828184
Si       4.01524801       2.83078943       1.00623292
Si       2.67590740       0.84248559       4.15653290
Si       1.03499019      -0.26512704       3.00423664
Si       2.97088188       1.14891517      -0.14606230
Si      -0.30430188       2.96142155       1.14217961
Si       2.94727189       5.97930599      -2.63049814
Si       5.86276725      -2.75395195       3.06601595
Si      -2.97511269       2.83599680       5.87039288
Si       6.68601362      -1.89875389       0.94446679
Si       0.76373855       6.71995611      -1.85993609
Si      -2.15189433       0.68223906       6.64096022
Si       3.75749676      -1.77012083       3.77838066
Si      -1.91184069       3.62958430       3.83392968
Si       3.69978787       3.90117149      -1.61924864
Si       0.01119305       5.62725206       0.17652767
Si      -0.04662094       0.00936221       5.62971574
Si       5.62276825       0.16754289       0.23209651
Si       0.78229732       0.81265438       0.84544289
Si       2.92863078       3.04227633       3.16502432
20
Lattice="7.957072937325348 -1.830098202781608 -1.9038942823906377 -2.131578694678824 7.8817181439928 -1.903849427293759 -2.131340908158795 -2.2140419997740453 7.800576977991743" Properties=species:S:1:pos:R:3 unique_starting_index=58 config_type=initial n_minim_iter=16 stress="-0.0006442726974512698 -0.00030914501593594536 -0.0003150923020785454 -0.00030914501593594536 -0.0006639489273378735 -0.00032602430916779424 -0.0003150923020785454 -0.00032602430916779424 -0.0006669833869929878" pbc="T T T"
Si       0.73407400       4.03527616       2.86624751
Si       4.00432121       2.82864209       0.99998437
Si       2.67424392       0.83651481       4.14573446
Si       1.01998649      -0.27153406       2.99284298
Si       2.96004797       1.13339339      -0.15290982
Si      -0.31021361       2.95044145       1.12660030
Si       2.93377872       5.96513789      -2.64088697
Si       5.84926278      -2.76381390       3.05203325
Si      -2.98434531       2.82250520       5.85638650
Si       6.67856735      -1.90232598       0.94076074
Si       0.76016640       6.71234111      -1.86352692
Si      -2.15496996       0.67888952       6.63373320
Si       3.74425869      -1.77268934       3.76912756
