14
Lattice="8.006767533685542 -0.0646633455940642 2.349867173614491 -0.10763607993774356 8.2374044083529 -0.03668358472496708 -1.7614953881235684 -0.13255515499900591 5.919658525756875" Properties=species:S:1:pos:R:3 unique_starting_index=20 config_type=initial n_minim_iter=1 energy=-2284.244574963643 free_energy=-2284.244574963643 pbc="T T T"
Si       3.62370519       5.07212383       6.95891974
Si       5.11520906       3.00859859       2.05100442
Si       2.51393087       2.96806208       1.27392238
Si       1.02242701       5.03158732       6.18183769
Si       6.03948685       4.77183502       5.53456877
Si       6.10805080       3.05312096       4.29089069
Si       0.09814922       3.26835088       2.69827334
Si       0.02958527       4.98706495       3.94195142
Si       1.52820614       4.69736249       2.04263946
Si       0.65934663       3.27106356       5.02633419
Si       4.60942993       3.34282342       6.19020266
Si       5.47828944       4.76912235       3.20650793
Si       3.66157353       4.55976326       2.09583085
Si       2.47606254       3.48042265       6.13701126
14
Lattice="8.000445013017556 -0.06701012584048899 2.338934464493255 -0.10996203198325424 8.240394106022855 -0.03644234320419762 -1.7684610580470603 -0.13201872681039784 5.9207383532134035" Properties=species:S:1:pos:R:3 unique_starting_index=20 config_type=initial n_minim_iter=2 stress="-0.0017324746109171492 0.0008564858648422306 -0.003314275442931268 0.0008564858648422306 0.00020366124459678266 0.00047809728983172386 -0.003314275442931268 0.00047809728983172386 -0.004972481301152505" pbc="T T T"
Si       3.61164588       5.07301574       6.95320754
Si       5.10987934       3.00860303       2.04353805
Si       2.51037604       2.96834951       1.27002294
Si       1.01214258       5.03276222       6.17969243
Si       6.02887707       4.77178101       5.52521243
Si       6.09919250       3.05242884       4.28268299
Si       0.09314485       3.26958425       2.69801805
Si       0.02282942       4.98893642       3.94054748
Si       1.52314157       4.69928670       2.04027570
Si       0.65144129       3.27209440       5.02456916
Si       4.59888036       3.34207855       6.18295477
Si       5.47058063       4.76927086       3.19866132
Si       3.65621708       4.56034159       2.09083999
Si       2.46580485       3.48102366       6.13239049
14
Lattice="8.000296741187817 -0.07211253821547799 2.338896668421762 -0.11485140902792923 8.243206169558976 -0.037584256887515884 -1.7709092318738948 -0.13183250963433685 5.929388966208901" Properties=species:S:1:pos:R:3 unique_starting_index=20 config_type=initial n_minim_iter=3 stress="0.004250773528347863 -0.0021576160729085882 -0.0020498745673851767 -0.0021576160729085882 0.007738593667762236 -0.0024411617820151075 -0.0020498745673851767 -0.0024411617820151075 0.003516959619315516" pbc="T T T"
Si       3.60616533       5.07159317       6.96115819
Si       5.10851993       3.00693609       2.04336189
Si       2.50837077       2.96766796       1.26954318
Si       1.00601617       5.03232503       6.18733949
Si       6.02510764       4.76879984       5.52877335
Si       6.09635279       3.04912455       4.28669108
Si       0.08942846       3.27046129       2.70192803
Si       0.01818331       4.99013657       3.94401029
Si       1.51890090       4.70072359       2.04172257
Si       0.64714289       3.27203002       5.03058961
Si       4.59563520       3.33853753       6.18897880
Si       5.46739321       4.76723110       3.20011177
Si       3.65361630       4.55931763       2.09208262
Si       2.46091980       3.47994349       6.13861876
14
Lattice="7.990209722330981 -0.07464019997262894 2.3410820777087893 -0.11870408158776358 8.227971841376814 -0.033308892954282895 -1.7696834206871537 -0.12763433340942043 5.938537079625461" Properties=species:S:1:pos:R:3 unique_starting_index=20 config_type=initial n_minim_iter=4 stress="-0.008403778610900244 -0.0049560944370582284 0.0002804142069717925 -0.0049560944370582284 -0.003946847504843878 -0.0031974272021451163 0.0002804142069717925 -0.0031974272021451163 -7.383635121969843e-05" pbc="T T T"
Si       3.59809486       5.06381060       6.97557332
Si       5.10218520       3.00172360       2.04579396
Si       2.50372736       2.96188671       1.27073694
Si       0.99963702       5.02397370       6.20051631
Si       6.01602538       4.75924092       5.53667627
Si       6.08677560       3.04278745       4.29625414
Si       0.08579684       3.26645639       2.70963399
Si       0.01504662       4.98290986       3.95005613
Si       1.51270654       4.69454419       2.04684508
Si       0.64269931       3.26839187       5.03949159
Si       4.58911568       3.33115311       6.19946519
Si       5.45912291       4.75730544       3.20681868
Si       3.64799115       4.55000815       2.09795143
Si       2.45383107       3.47568916       6.14835884
14
Lattice="7.995389309154191 -0.0656796453066041 2.3419248468910023 -0.11253353825275425 8.220850413451927 -0.02336931630142389 -1.7722716015029945 -0.1217002652630897 5.945254054425026" Properties=species:S:1:pos:R:3 unique_starting_index=20 config_type=initial n_minim_iter=5 stress="-0.00034428948157939145 0.00216555168029233 -0.0012608378433895955 0.00216555168029233 -0.0032586320343236746 0.0007364524024512739 -0.0012608378433895955 0.0007364524024512739 0.001685252757700683" pbc="T T T"
Si       3.60338493       5.07036479       6.99015720
Si       5.10921152       3.00714075       2.04894349
Si       2.50719923       2.96310572       1.27365239
Si       1.00137265       5.02632976       6.21486609
Si       6.02408583       4.76609953       5.54545462
Si       6.09237691       3.04982841       4.30550723
Si       0.08649834       3.26737097       2.71835497
Si       0.01820726       4.98364210       3.95830235
Si       1.51562937       4.69612219       2.05413896
Si       0.64327074       3.27227586       5.04838331
Si       4.59495480       3.33734831       6.20967062
Si       5.46731343       4.76119464       3.21542628
Si       3.65429694       4.55142670       2.10569749
Si       2.45628723       3.48204380       6.15811210
14
Lattice="7.998157214349156 -0.06953346685832675 2.349496369866354 -0.11973045816531383 8.221786988352873 -0.012575743225824481 -1.7658560524895972 -0.11235544119418456 5.940867627878309" Properties=species:S:1:pos:R:3 unique_starting_index=20 config_type=initial n_minim_iter=6 stress="-0.0013741515459535219 -0.003045711426371101 0.003235760749643939 -0.003045711426371101 0.0029131826380511465 0.004818579056415391 0.003235760749643939 0.004818579056415391 -0.0032588397972099043" pbc="T T T"
Si       3.60758774       5.07518429       7.00025703
Si       5.11240725       3.00868308       2.05336129
Si       2.50498297       2.96471379       1.27753122
Si       1.00016345       5.03121500       6.22442696
Si       6.02767399       4.76837256       5.55274598
Si       6.09384384       3.04838875       4.31849550
Si       0.08489672       3.27152552       2.72504227
Si       0.01872686       4.99150933       3.95929275
Si       1.51217963       4.70059299       2.06011448
Si       0.64327300       3.27827828       5.05095348
Si       4.60039108       3.33930509       6.21767377
Si       5.46929770       4.76161980       3.22683478
Si       3.65138731       4.55187905       2.11551820
Si       2.46118339       3.48801903       6.16227006
14
Lattice="7.998770466952583 -0.06902428476516301 2.3527008438211574 -0.11756675609246103 8.207095726754767 -0.018645646527072075 -1.7650968811601357 -0.11691212749534471 5.945739603799896" Properties=species:S:1:pos:R:3 unique_starting_index=20 config_type=initial n_minim_iter=7 stress="0.004716558322639456 0.000296443810448677 0.00097065950500221 0.000296443810448677 0.00028375643683447644 -0.0037943591656646263 0.00097065950500221 -0.0037943591656646263 -0.002335359362559037" pbc="T T T"
Si       3.61206167       5.05952043       7.00461413
Si       5.11773499       3.00664591       2.04945410
Si       2.50404516       2.96163888       1.27518067
Si       0.99837184       5.01451340       6.23034070
Si       6.03154883       4.75739406       5.55121845
Si       6.09451806       3.03854997       4.32510788
Si       0.08455800       3.26376525       2.72857635
Si       0.02158877       4.98260935       3.95468692
Si       1.51253751       4.69337687       2.05721003
Si       0.64225241       3.26882338       5.05263460
Si       4.60356932       3.32778245       6.22258477
Si       5.47385442       4.75233593       3.22716020
Si       3.65083315       4.54291212       2.11618455
Si       2.46527368       3.47824720       6.16361025
14
Lattice="7.980411116853957 -0.06484926168724141 2.3557421045569775 -0.11739171264178941 8.200623680805768 -0.003991251733638853 -1.7636921884646442 -0.10622159353782779 5.962435846465694" Properties=species:S:1:pos:R:3 unique_starting_index=20 config_type=initial n_minim_iter=8 stress="-0.002791578932157181 0.0012713685614428056 0.0008637703395870082 0.0012713685614428056 0.0008982596584351047 -0.001080955525059039 0.0008637703395870082 -0.001080955525059039 0.0021878965778097475" pbc="T T T"
Si       3.60361624       5.06537213       7.03244402
Si       5.10990456       3.01095151       2.05504361
Si       2.49571097       2.96418069       1.28174268
Si       0.98942266       5.01860132       6.25914309
Si       6.01682873       4.76419256       5.56964574
Si       6.07794293       3.04013104       4.34287139
Si       0.08249848       3.26536026       2.74454096
Si       0.02138428       4.98942179       3.97131531
Si       1.50699070       4.69463889       2.06942120
Si       0.63662074       3.27586680       5.07175246
Si       4.59233651       3.33491394       6.24476550
Si       5.46270647       4.75368603       3.24243423
Si       3.64023645       4.54274962       2.13164911
Si       2.45909077       3.48680321       6.18253759
14
Lattice="7.986020482781247 -0.0701324392673496 2.351831842372351 -0.12625980754976449 8.186896562976594 0.007131562062150561 -1.7682150238619074 -0.09616163386448623 5.964366094120348" Properties=species:S:1:pos:R:3 unique_starting_index=20 config_type=initial n_minim_iter=9 stress="0.0027572376810172648 -0.0027293494883505794 -0.0004870954043810692 -0.0027293494883505794 -0.0020241228795573334 0.0015655777943772472 -0.0004870954043810692 0.0015655777943772472 0.0020216857519115053" pbc="T T T"
Si       3.59918450       5.05978384       7.03968269
Si       5.11354621       3.00588692       2.05469630
Si       2.49236115       2.96081865       1.28364680
Si       0.97799944       5.01471557       6.26863320
Si       6.01373788       4.75815351       5.57151281
Si       6.07549096       3.03065962       4.34646987
Si       0.07780777       3.26244898       2.75181669
Si       0.01605470       4.98994287       3.97685963
Si       1.50024685       4.68859653       2.07454255
Si       0.62960307       3.27794635       5.07704005
Si       4.59129880       3.33200596       6.24878695
Si       5.46194258       4.74265614       3.24628945
Si       3.63706505       4.53386856       2.13936220
Si       2.45448060       3.48673393       6.18396730
14
Lattice="7.980516178266856 -0.06413926342118835 2.351600539372819 -0.12081483426574542 8.191332212877793 0.009965487589568462 -1.7652032529756692 -0.09535279498257572 5.957331610887496" Properties=species:S:1:pos:R:3 unique_starting_index=20 config_type=initial n_minim_iter=10 stress="-0.0008455126156624981 1.2772823145742839e-05 0.0013017721049086467 1.2772823145742839e-05 0.002128801532802774 0.0015297710729628615 0.0013017721049086467 0.0015297710729628615 0.0012102415463947898" pbc="T T T"
Si       3.60295412       5.06403642       7.03631264
Si       5.11583432       3.01476694       2.05303482
Si       2.49154397       2.96780374       1.28258500
Si       0.97866377       5.01707322       6.26586281
Si       6.01380331       4.76841506       5.56567970
Si       6.07131561       3.03282211       4.34685635
Si       0.08069478       3.26342509       2.75321794
Si       0.02318248       4.99901805       3.97204129
Si       1.50081719       4.69374420       2.07334195
Si       0.63156444       3.28366408       5.07344873
Si       4.59368090       3.33809595       6.24555568
Si       5.46293365       4.74817608       3.24544891
Si       3.63927324       4.53955661       2.14358483
Si       2.45522485       3.49228354       6.17531281
14
Lattice="7.965288069055999 -0.05989250171385833 2.3368852571928964 -0.11451082002046147 8.203424282117968 0.004632562312192699 -1.772802091728366 -0.10082781867806155 5.957178398160621" Properties=species:S:1:pos:R:3 unique_starting_index=20 config_type=initial n_minim_iter=11 stress="0.0006522184250508395 2.4061261235691857e-05 -0.0008185527781629065 2.4061261235691857e-05 -0.0004985785497681379 -0.0012894345282030042 -0.0008185527781629065 -0.0012894345282030042 -0.00044569344326416294" pbc="T T T"
Si       3.58736638       5.06149900       7.02233720
Si       5.11072569       3.02100209       2.03743449
Si       2.49060878       2.98120496       1.27635902
Si       0.96724946       5.02170187       6.26126173
Si       5.99880404       4.77702296       5.53968756
Si       6.05037232       3.03206819       4.33769250
Si       0.07917112       3.26568100       2.75900866
Si       0.02760283       5.01063578       3.96100371
Si       1.49278165       4.69973720       2.06795977
Si       0.61980612       3.28953068       5.06142084
Si       4.58519351       3.34296676       6.23073645
Si       5.45816904       4.75317329       3.23727538
Si       3.63526999       4.54832822       2.13937452
Si       2.44270516       3.49437575       6.15932170
14
Lattice="7.949226371530648 -0.050695888928216325 2.3314444496796543 -0.10285715034142857 8.220878841808714 -0.0015358410712291647 -1.7749454024443239 -0.10803963491482113 5.962098027542039" Properties=species:S:1:pos:R:3 unique_starting_index=20 config_type=initial n_minim_iter=12 stress="0.0006038462645961188 0.000934904456234371 -0.001831226585047003 0.000934904456234371 -0.0004615512927247277 -0.0005070765099885519 -0.001831226585047003 -0.0005070765099885519 0.0005156223084015994" pbc="T T T"
Si       3.57870279       5.06736431       7.01840807
Si       5.10211145       3.03703342       2.02886214
Si       2.49272103       2.99477901       1.27359857
Si       0.96931237       5.02510990       6.26314449
Si       5.99030548       4.79142894       5.52505397
Si       6.03602744       3.03238299       4.34038475
Si       0.08111833       3.27071438       2.76695266
Si       0.03539638       5.02976033       3.95162189
Si       1.48571074       4.70668912       2.06996723
Si       0.61212983       3.30249265       5.05533148
Si       4.58571308       3.35545419       6.22203941
Si       5.45929398       4.75965066       3.23667515
Si       3.63237000       4.56450961       2.13970622
Si       2.43905382       3.49763371       6.15230041
14
Lattice="7.939958148374042 -0.04870196868150034 2.3302597296945806 -0.09947852133766509 8.235027461147034 -0.005225929445737787 -1.7731361878830454 -0.11162871997573323 5.959685315647834" Properties=species:S:1:pos:R:3 unique_starting_index=20 config_type=initial n_minim_iter=13 stress="0.0021481571464997294 -7.108257512144149e-05 -0.0013028851194566793 -7.108257512144149e-05 0.00043331928741242496 -0.0006728641821366965 -0.0013028851194566793 -0.0006728641821366965 0.0005574935033520428" pbc="T T T"
Si       3.57233858       5.07074915       7.01297894
Si       5.09716849       3.04522777       2.02501248
Si       2.49500486       3.00394762       1.27174018
Si       0.97017495       5.02946901       6.25970663
Si       5.98816399       4.80049271       5.51222475
Si       6.02814406       3.03095131       4.34305183
Si       0.07917945       3.27420406       2.77249437
Si       0.03919938       5.04374546       3.94166729
Si       1.48208146       4.71220896       2.07060750
Si       0.60697931       3.31708487       5.04655109
Si       4.58526197       3.36248781       6.21411161
Si       5.46036413       4.75761191       3.23816803
Si       3.62759702       4.57780498       2.14354435
Si       2.43974642       3.49689179       6.14117477
14
Lattice="7.947752729320374 -0.0485254986162565 2.334639698707185 -0.10238266833732791 8.231365026510382 0.004761872881165932 -1.774000843844863 -0.10374534901237792 5.968029308510888" Properties=species:S:1:pos:R:3 unique_starting_index=20 config_type=initial n_minim_iter=14 stress="-0.0005959368604437909 -0.0005919962376253864 0.0001935429218545298 -0.0005919962376253864 0.0007303885616882843 0.0012715173963147308 0.0001935429218545298 0.0012715173963147308 0.0011661141810688663" pbc="T T T"
Si       3.56835910       5.07118371       7.02894614
Si       5.09589161       3.04494230       2.02721111
Si       2.50301012       3.00791047       1.27848474
Si       0.97547760       5.03415188       6.28021977
Si       5.99668325       4.80296938       5.52053337
Si       6.03554735       3.02679431       4.35970835
Si       0.07468597       3.27612480       2.78689751
Si       0.03582187       5.05229987       3.94772253
Si       1.48313746       4.70865444       2.08168849
Si       0.60595028       3.32893003       5.05561525
Si       4.58823176       3.37043974       6.22574239
Si       5.46541894       4.75016415       3.25181563
Si       3.62903914       4.57867673       2.15872560
Si       2.44233008       3.50041745       6.14870528
14
Lattice="7.967610429859225 -0.04582557320647792 2.3420831437906995 -0.10456665557888163 8.230215988055802 0.020610554912629576 -1.7730483578060592 -0.09185448392133257 5.968824283243277" Properties=species:S:1:pos:R:3 unique_starting_index=20 config_type=initial n_minim_iter=15 stress="0.000836659786769002 0.00043096945856680775 0.002476671637877878 0.00043096945856680775 0.0007719142377938011 0.0020477349807829955 0.002476671637877878 0.0020477349807829955 -8.185247732438705e-05" pbc="T T T"
Si       3.57165102       5.07891050       7.04332282
Si       5.09778523       3.04685747       2.02877370
Si       2.51834440       3.01362543       1.28819516
Si       0.99221018       5.04567846       6.30274428
Si       6.01858322       4.80739984       5.52556622
Si       6.05667864       3.02446649       4.38356164
Si       0.07141220       3.28513609       2.80595176
Si       0.03331677       5.06806944       3.94795634
Si       1.48967583       4.70370284       2.09679303
Si       0.61101862       3.35055350       5.06265602
Si       4.60031958       3.38883309       6.23472496
Si       5.47897680       4.74198244       3.26886196
Si       3.63644594       4.58491963       2.18550038
Si       2.45354948       3.50761630       6.14601760
14
Lattice="7.992284391499688 -0.05221817868298385 2.3504871664127287 -0.1159369224279255 8.232137804553997 0.035735145878163184 -1.7733776900478724 -0.0785691311506885 5.973347606738749" Properties=species:S:1:pos:R:3 unique_starting_index=20 config_type=initial n_minim_iter=16 stress="-0.003424795299082783 -0.000555923586958229 0.0025896368640691333 -0.000555923586958229 -0.0029764252697134035 0.00019662687378435323 0.0025896368640691333 0.00019662687378435323 -0.001691497859696573" pbc="T T T"
Si       3.56582458       5.08747328       7.06107788
Si       5.09410110       3.04443442       2.03364734
Si       2.53714520       3.01387722       1.29849204
Si       1.00886868       5.05691607       6.32592258
Si       6.03794981       4.80736713       5.53495908
Si       6.07880849       3.01623518       4.40385721
Si       0.06501997       3.29398337       2.82461084
Si       0.02416128       5.08511532       3.95571271
Si       1.49700513       4.69912371       2.11143059
Si       0.61438465       3.37537947       5.07582625
Si       4.60596465       3.40222679       6.24813933
Si       5.48858513       4.72597102       3.28374367
Si       3.63938002       4.58171720       2.21002970
Si       2.46358976       3.51963329       6.14954021
14
Lattice="8.016175445315834 -0.05421573640492155 2.3370929174621424 -0.1232995052805423 8.250354658348654 0.05343553823704399 -1.7911073099258756 -0.06475825728461486 5.982599801007536" Properties=species:S:1:pos:R:3 unique_starting_index=20 config_type=initial n_minim_iter=17 stress="0.0014928869719964253 0.0012054985263791644 -0.004880709199736103 0.0012054985263791644 0.005161364127430102 -0.0008335032108670731 -0.004880709199736103 -0.0008335032108670731 0.0034635069815218047" pbc="T T T"
Si       3.54964731       5.11394108       7.07463689
Si       5.09435633       3.04382489       2.02722080
Si       2.55212132       3.01743958       1.29849137
Si       1.00741230       5.08755577       6.34590746
Si       6.04949501       4.81533845       5.53218900
Si       6.09719499       3.01877323       4.40124615
Si       0.05227362       3.31604222       2.84093925
Si       0.00457364       5.11260743       3.97188210
Si       1.50262867       4.69543771       2.11326078
Si       0.60482781       3.40739485       5.09582799
Si       4.59913996       3.43594295       6.25986747
Si       5.49694082       4.72398582       3.27730026
Si       3.64468656       4.58461624       2.22220361
Si       2.45708207       3.54676442       6.15092465
14
Lattice="8.075785699048888 -0.05777859118987068 2.3180696633976594 -0.1418086132590648 8.299028805832847 0.10291855190286693 -1.8234631971163302 -0.026362083261643972 6.001497384782203" Properties=species:S:1:pos:R:3 unique_starting_index=20 config_type=initial n_minim_iter=18 stress="0.016572784634655058 0.0032556725517081976 -0.001751563456922408 0.0032556725517081976 0.00729809654886941 -0.0026328689188448375 -0.001751563456922408 -0.0026328689188448375 -0.0009421744087495101" pbc="T T T"
Si       3.51470101       5.19012648       7.13411846
Si       5.10728753       3.05242298       2.01140767
Si       2.59581288       3.02476166       1.28836714
Si       1.00322636       5.16246515       6.41107793
Si       6.09055235       4.82885464       5.51214009
Si       6.13996558       3.01370003       4.41558520
Si       0.01996154       3.38603349       2.91034551
Si      -0.02945169       5.20118810       4.00690040
Si       1.51166507       4.68558780       2.11525768
Si       0.57231443       3.50683838       5.14697838
Si       4.59884882       3.52930033       6.30722792
Si       5.53819946       4.70804975       3.27550722
Si       3.65719584       4.58471136       2.26447308
Si       2.45331805       3.63017678       6.15801252
14
Lattice="8.103466846592061 -0.06140561364815004 2.286431436185893 -0.1623876524327747 8.366900997713001 0.16141730020054945 -1.8690928875066797 0.01864064721712023 6.057964157682391" Properties=species:S:1:pos:R:3 unique_starting_index=20 config_type=initial n_minim_iter=19 stress="0.03573000565817259 0.005602722494605389 -0.00031867091833550596 0.005602722494605389 0.017759519646569022 -0.00025811859866134847 -0.00031867091833550596 -0.00025811859866134847 0.004975037054653585" pbc="T T T"
Si       3.43567944       5.27968150       7.23034687
Si       5.09798147       3.06897288       1.98249323
Si       2.63630687       3.04445453       1.27546603
Si       0.97400484       5.25516315       6.52331966
Si       6.10438184       4.84999224       5.48248075
Si       6.14782888       2.99920196       4.44651445
Si      -0.03239554       3.47414380       3.02333214
Si      -0.07584258       5.32493407       4.05929845
Si       1.50250382       4.67047425       2.12725225
Si       0.50860898       3.63845769       5.21907562
Si       4.56948249       3.65366178       6.37856065
Si       5.56337733       4.68567834       3.28673727
Si       3.64885254       4.59352683       2.31948193
Si       2.42313376       3.73060921       6.18633096
14
Lattice="8.055518392862407 -0.06182753011982683 2.251142950496306 -0.17080010469216497 8.43838592016623 0.19331654959893493 -1.9051265149259475 0.04205613781800971 6.128456705561125" Properties=species:S:1:pos:R:3 unique_starting_index=20 config_type=initial n_minim_iter=20 stress="0.03539978747373051 0.00530605109708955 -2.865011107810258e-05 0.00530605109708955 0.017646373038016135 -5.6040914552229826e-06 -2.865011107810258e-05 -5.6040914552229826e-06 0.003247774290705307" pbc="T T T"
Si       3.33976035       5.35014975       7.32328573
Si       5.06697804       3.09503585       1.94368938
Si       2.63983142       3.06846478       1.24963048
Si       0.91261374       5.32357868       6.62922683
Si       6.06312544       4.86840652       5.43649234
Si       6.08811240       2.97924528       4.47340122
Si      -0.08353366       3.55020801       3.13642386
Si      -0.10852063       5.43936925       4.09951498
Si       1.46635186       4.65589779       2.13445618
Si       0.43101501       3.74811971       5.27648528
Si       4.51323991       3.76271673       6.43846002
Si       5.54857677       4.67049482       3.29643092
Si       3.61203259       4.60213768       2.34763350
Si       2.36755918       3.81647685       6.22528270
14
Lattice="7.97954704005908 -0.06504871564314382 2.257719238075025 -0.17059432049695036 8.421258603118394 0.1842294968908271 -1.9035737455012907 0.03608169359450225 6.19669909798416" Properties=species:S:1:pos:R:3 unique_starting_index=20 config_type=initial n_minim_iter=21 stress="-0.0062538263101635854 0.00330488503112852 0.0028245746374830727 0.00330488503112852 -0.004197917988695001 -0.003606394216910069 0.0028245746374830727 -0.003606394216910069 -0.006227887666053725" pbc="T T T"
Si       3.30759840       5.33883299       7.39978073
Si       5.04149406       3.08990277       1.94541214
Si       2.59778057       3.05345859       1.23886711
Si       0.86388491       5.30238881       6.69323570
Si       6.00404224       4.84746052       5.46850850
Si       6.02077481       2.97028340       4.50430067
Si      -0.09866326       3.54483106       3.17013934
Si      -0.11539583       5.42200818       4.13434717
Si       1.43848224       4.62908283       2.15152221
Si       0.41227269       3.73043840       5.32051014
Si       4.46689673       3.76320875       6.48712562
Si       5.49310629       4.66185318       3.31813770
Si       3.57675687       4.57596678       2.33037560
Si       2.32862211       3.81632480       6.30827223
