22
Lattice="5.543801293051837 -0.657267667818169 -1.4048043076126195 -2.4385556558524493 10.522720568245484 -2.060863336301894 -4.705785587234931 -5.127652430144831 10.817844841694342" Properties=species:S:1:pos:R:3 unique_starting_index=18 config_type=initial n_minim_iter=1 energy=-3583.723439252135 free_energy=-3583.723439252135 pbc="T T T"
Si      -0.08971453       9.24286703      -1.04516648
Si      -1.52544013      -1.26916552       5.71395094
Si      -4.04264527      -3.63655060       9.66718105
Si      -0.00871146      -2.82919594       8.71565406
Si      -5.58032811      -0.36986914       8.96851204
Si       4.15057125       2.09256602       0.10735953
Si       2.17337382       0.75828219       0.33399816
Si      -1.51403069       0.39732118       7.03186475
Si      -1.95238626      -3.39311361       9.35802607
Si      -2.68069769       1.01285209       5.36353454
Si       1.15881891      -0.28108325       2.51926419
Si      -2.96170781       3.50164384       5.08463799
Si      -3.33535105      -2.83018270       6.26440926
Si      -0.54698410       6.74472529      -1.11389758
Si       1.02882706       1.41273865       3.84668994
Si       1.17822714       7.74938472      -1.85995584
Si      -0.88749480      -1.30122357       3.29109099
Si       2.47848940      -4.95629364       6.37513041
Si       0.17265050       3.17242051       2.98681141
Si      -2.81326134       2.44533856       6.92096691
Si      -1.50377086       4.39569568       3.44056593
Si      -1.83683443      -2.15285186       7.62168749
22
Lattice="5.544478680641222 -0.6576217144846225 -1.4052980500048156 -2.4391158487601134 10.52388854313161 -2.060516970914986 -4.706923246207465 -5.127807721301291 10.8182068520231" Properties=species:S:1:pos:R:3 unique_starting_index=18 config_type=initial n_minim_iter=2 stress="0.001229898632600987 -0.0005518147895357666 -0.000195855276256843 -0.0005518147895357666 0.0009669645085156996 7.243653659310015e-05 -0.000195855276256843 7.243653659310015e-05 0.000492272378985093" pbc="T T T"
Si      -0.09000921       9.24371810      -1.04501513
Si      -1.52602671      -1.26913390       5.71409065
Si      -4.04370983      -3.63658406       9.66749297
Si      -0.00922451      -2.82934840       8.71556838
Si      -5.58156844      -0.36959094       8.96906177
Si       4.15077139       2.09255752       0.10699183
Si       2.17351531       0.75824935       0.33389291
Si      -1.51478819       0.39757489       7.03202886
Si      -1.95322061      -3.39321014       9.35823889
Si      -2.68143655       1.01310821       5.36372876
Si       1.15869341      -0.28103580       2.51915170
Si      -2.96267995       3.50217026       5.08496011
Si      -3.33612652      -2.83024490       6.26470735
Si      -0.54730845       6.74536500      -1.11381113
Si       1.02853155       1.41288832       3.84660910
Si       1.17808080       7.75018023      -1.85987390
Si      -0.88781222      -1.30126830       3.29114406
Si       2.47834514      -4.95689799       6.37485021
Si       0.17226915       3.17278568       2.98684212
Si      -2.81427210       2.44581488       6.92120753
Si      -1.50432082       4.39637096       3.44081620
Si      -1.83752414      -2.15290478       7.62172144
22
Lattice="5.5442566330511385 -0.6575197416169531 -1.4056425601057625 -2.438618524883911 10.523713933914397 -2.060127355006742 -4.7075947588265485 -5.127775288767805 10.817823012447223" Properties=species:S:1:pos:R:3 unique_starting_index=18 config_type=initial n_minim_iter=3 stress="-6.277428746289892e-06 -0.0004966396437964759 -0.000671217791293958 -0.0004966396437964759 -0.00015381054963074602 3.800725591804072e-05 -0.000671217791293958 3.800725591804072e-05 -0.0006543814570698275" pbc="T T T"
Si      -0.08963656       9.24347047      -1.04485051
Si      -1.52642013      -1.26908344       5.71384588
Si      -4.04432038      -3.63653351       9.66712600
Si      -0.00980677      -2.82924029       8.71487433
Si      -5.58190679      -0.36972832       8.96897132
Si       4.15044428       2.09257746       0.10662791
Si       2.17338344       0.75827043       0.33381102
Si      -1.51519552       0.39762444       7.03170331
Si      -1.95390659      -3.39310172       9.35784341
Si      -2.68166924       1.01303921       5.36350553
Si       1.15837970      -0.28084312       2.51887023
Si      -2.96297033       3.50204118       5.08488402
Si      -3.33656104      -2.83026648       6.26458466
Si      -0.54712596       6.74517732      -1.11373171
Si       1.02824378       1.41290756       3.84625260
Si       1.17822167       7.75023829      -1.85966182
Si      -0.88805810      -1.30124662       3.29096769
Si       2.47752197      -4.95684439       6.37418999
Si       0.17209472       3.17279318       2.98665124
Si      -2.81464397       2.44575567       6.92089295
Si      -1.50425372       4.39646229       3.44080634
Si      -1.83798204      -2.15290466       7.62118163
22
Lattice="5.544090724369633 -0.6569908506363131 -1.4054367637833485 -2.4376571534912617 10.52413979965343 -2.0604804912172923 -4.707439847496578 -5.12858691182325 10.81860405858529" Properties=species:S:1:pos:R:3 unique_starting_index=18 config_type=initial n_minim_iter=4 stress="0.00027625665332957306 0.0004554940727368458 -0.00031684370884048764 0.0004554940727368458 0.00025250046766912447 -0.00021070984650924517 -0.00031684370884048764 -0.00021070984650924517 0.0007065957514736928" pbc="T T T"
Si      -0.08862886       9.24391484      -1.04489918
Si      -1.52619969      -1.26926233       5.71432626
Si      -4.04410061      -3.63714566       9.66781126
Si      -0.00939953      -2.82940403       8.71563748
Si      -5.58132228      -0.37041301       8.96959659
Si       4.15054393       2.09310620       0.10688038
Si       2.17348755       0.75852824       0.33410589
Si      -1.51463061       0.39752380       7.03234973
Si      -1.95367612      -3.39344963       9.35872416
Si      -2.68122059       1.01279960       5.36377187
Si       1.15845259      -0.28055449       2.51916231
Si      -2.96242447       3.50192265       5.08518813
Si      -3.33657537      -2.83082727       6.26504473
Si      -0.54656694       6.74544172      -1.11397144
Si       1.02866725       1.41307536       3.84667010
Si       1.17881406       7.75099345      -1.85962677
Si      -0.88799931      -1.30141193       3.29122415
Si       2.47733005      -4.95698711       6.37498908
Si       0.17261323       3.17305076       2.98696831
Si      -2.81399898       2.44557527       6.92132884
Si      -1.50340027       4.39674358       3.44112977
Si      -1.83763033      -2.15328663       7.62167236
22
Lattice="5.543834693827733 -0.657438481234334 -1.4043861575505314 -2.438610373279814 10.524710631416607 -2.060059469955015 -4.705147360444359 -5.1278434436636635 10.816721248959247" Properties=species:S:1:pos:R:3 unique_starting_index=18 config_type=initial n_minim_iter=5 stress="0.0001046872381803501 -0.00028007366285102004 0.0004994325921815411 -0.00028007366285102004 4.964084409767483e-05 0.00030500287191295245 0.0004994325921815411 0.00030500287191295245 0.0003037320525745099" pbc="T T T"
Si      -0.08926261       9.24426869      -1.04407448
Si      -1.52508308      -1.26872793       5.71361537
Si      -4.04210273      -3.63640194       9.66618741
Si      -0.00753207      -2.82894774       8.71480106
Si      -5.57958964      -0.36958649       8.96809721
Si       4.15029638       2.09295731       0.10778761
Si       2.17351749       0.75846685       0.33465870
Si      -1.51324217       0.39811877       7.03169940
Si      -1.95177346      -3.39278461       9.35758130
Si      -2.68024167       1.01336423       5.36294694
Si       1.15885148      -0.28021602       2.51915054
Si      -2.96185524       3.50259948       5.08454037
Si      -3.33540835      -2.83040706       6.26391938
Si      -0.54721912       6.74562132      -1.11366732
Si       1.02929532       1.41334033       3.84667829
Si       1.17797450       7.75129648      -1.85862803
Si      -0.88733503      -1.30118808       3.29075431
Si       2.47872289      -4.95700190       6.37476914
Si       0.17299719       3.17345811       2.98704699
Si      -2.81291724       2.44623732       6.92044756
Si      -1.50282888       4.39748647       3.44102613
Si      -1.83597526      -2.15286640       7.62056806
22
Lattice="5.543955252141922 -0.6572677088732596 -1.4031307970000668 -2.4385522848917156 10.527455496830422 -2.060342752082543 -4.704088628070315 -5.12993502651895 10.813238072655036" Properties=species:S:1:pos:R:3 unique_starting_index=18 config_type=initial n_minim_iter=6 stress="0.0012237742593680144 -2.5537977732878953e-05 0.0005776887313690426 -2.5537977732878953e-05 -0.0003379093221660108 -0.0011495649771853483 0.0005776887313690426 -0.0011495649771853483 -0.0008169154935431447" pbc="T T T"
Si      -0.08887628       9.24668965      -1.04366306
Si      -1.52437775      -1.26882397       5.71175214
Si      -4.04108101      -3.63791151       9.66291963
Si      -0.00605234      -2.83014836       8.71221642
Si      -5.57859646      -0.37052774       8.96503212
Si       4.15029348       2.09359143       0.10834312
Si       2.17383320       0.75871647       0.33531344
Si      -1.51177446       0.39761800       7.02950016
Si      -1.95066323      -3.39392380       9.35474250
Si      -2.67940715       1.01326206       5.36090318
Si       1.15905752      -0.27950501       2.51845762
Si      -2.96159594       3.50318986       5.08226193
Si      -3.33532225      -2.83177768       6.26209345
Si      -0.54735300       6.74690183      -1.11423150
Si       1.02993757       1.41335884       3.84555397
Si       1.17817350       7.75353538      -1.85800187
Si      -0.88701788      -1.30167832       3.28971486
Si       2.47964631      -4.95851912       6.37398466
Si       0.17371433       3.17423897       2.98612413
Si      -2.81214672       2.44586671       6.91760095
Si      -1.50166711       4.39896211       3.43983911
Si      -1.83471598      -2.15438686       7.61791285
22
Lattice="5.541844984832225 -0.6577662183115204 -1.402564518104448 -2.4368742959706684 10.534065732663404 -2.0559119303110074 -4.701905063041148 -5.1297679553380044 10.808527718571204" Properties=species:S:1:pos:R:3 unique_starting_index=18 config_type=initial n_minim_iter=7 stress="-0.0002580634629105158 0.00016899365459732398 -6.325195420201186e-05 0.00016899365459732398 0.00048125401181715974 0.00042222863047931656 -6.325195420201186e-05 0.00042222863047931656 -0.0003728021988898261" pbc="T T T"
Si      -0.08791815       9.25299167      -1.03844435
Si      -1.52337033      -1.26631096       5.70957523
Si      -4.03903328      -3.63684697       9.65881105
Si      -0.00486623      -2.82881113       8.70873413
Si      -5.57585066      -0.36799814       8.96306029
Si       4.14824104       2.09531840       0.10973607
Si       2.17339022       0.75953422       0.33672915
Si      -1.50943239       0.40017951       7.02810935
Si      -1.94937020      -3.39220672       9.35109162
Si      -2.67754481       1.01581217       5.35963573
Si       1.15836208      -0.27673304       2.51755652
Si      -2.96081872       3.50762240       5.08178728
Si      -3.33487078      -2.83200050       6.26005353
Si      -0.54717470       6.75019875      -1.11237982
Si       1.03004458       1.41557526       3.84514366
Si       1.17843167       7.75857174      -1.85378398
Si      -0.88662564      -1.30126755       3.28833911
Si       2.47911629      -4.95932986       6.37183452
Si       0.17450359       3.17790716       2.98691211
Si      -2.81071795       2.44911278       6.91630119
Si      -1.49928471       4.40459898       3.44119760
Si      -1.83281766      -2.15420470       7.61460170
22
Lattice="5.541141627473965 -0.6581594704230391 -1.4025588566291336 -2.437328741389644 10.534363879143937 -2.056111775653443 -4.700545524878876 -5.129339954527022 10.809857543864869" Properties=species:S:1:pos:R:3 unique_starting_index=18 config_type=initial n_minim_iter=8 stress="-0.0012534104027966157 -0.0009043389835776702 -0.000147686795238067 -0.0009043389835776702 -7.326659747541306e-05 -0.0007687268083169433 -0.000147686795238067 -0.0007687268083169433 0.0010221086173903887" pbc="T T T"
Si      -0.08842973       9.25311664      -1.03785725
Si      -1.52281585      -1.26535772       5.71001498
Si      -4.03796149      -3.63640607       9.65989780
Si      -0.00409440      -2.82878684       8.70977562
Si      -5.57464729      -0.36769108       8.96444268
Si       4.14729357       2.09499628       0.11014844
Si       2.17323598       0.75942745       0.33717307
Si      -1.50870670       0.40035081       7.02889373
Si      -1.94851046      -3.39189427       9.35244063
Si      -2.67685500       1.01598547       5.36021842
Si       1.15808543      -0.27588228       2.51776940
Si      -2.96107465       3.50799462       5.08216648
Si      -3.33442010      -2.83184186       6.26123534
Si      -0.54781414       6.74979579      -1.11294290
Si       1.03003312       1.41551880       3.84560418
Si       1.17765878       7.75864273      -1.85354916
Si      -0.88634153      -1.30110300       3.28872989
Si       2.47963769      -4.95934551       6.37333284
Si       0.17455891       3.17798001       2.98750652
Si      -2.81047288       2.44898616       6.91713605
Si      -1.49883787       4.40532000       3.44186370
Si      -1.83191238      -2.15453278       7.61520772
22
Lattice="5.541469476894944 -0.6576362140762516 -1.4021608811558068 -2.4359099679493403 10.533500985333893 -2.0528756508712793 -4.700988801497264 -5.12690644375607 10.80691316465121" Properties=species:S:1:pos:R:3 unique_starting_index=18 config_type=initial n_minim_iter=9 stress="6.770293897689179e-05 -3.4930822144913224e-06 -0.00016164147053018423 -3.4930822144913224e-06 -0.0009405695423924039 0.0002500183267141798 -0.00016164147053018423 0.0002500183267141798 0.00012147323338504199" pbc="T T T"
Si      -0.08669732       9.25291316      -1.03399801
Si      -1.52262326      -1.26262946       5.70843447
Si      -4.03833616      -3.63413442       9.65737566
Si      -0.00348838      -2.82632875       8.70782604
Si      -5.57425656      -0.36627121       8.96349287
Si       4.14763834       2.09565297       0.11149788
Si       2.17390111       0.75999043       0.33792627
Si      -1.50783625       0.40223731       7.02782920
Si      -1.94845253      -3.38940576       9.35067998
Si      -2.67614058       1.01697056       5.35964047
Si       1.15794640      -0.27345655       2.51720055
Si      -2.96124463       3.50919351       5.08206389
Si      -3.33534993      -2.83074980       6.26029088
Si      -0.54715099       6.74861758      -1.11163204
Si       1.03072470       1.41671137       3.84548124
Si       1.17885052       7.75853083      -1.85036891
Si      -0.88644694      -1.30015047       3.28789745
Si       2.48006304      -4.95679536       6.37236914
Si       0.17565851       3.17890876       2.98838520
Si      -2.81014280       2.44994633       6.91679755
Si      -1.49732719       4.40694625       3.44295059
Si      -1.83150913      -2.15343997       7.61290381
22
Lattice="5.539662313308095 -0.657542397569126 -1.4012546178178695 -2.4343857583811257 10.538741053513746 -2.0518225514560693 -4.698828163584421 -5.129166480747325 10.8038071906912" Properties=species:S:1:pos:R:3 unique_starting_index=18 config_type=initial n_minim_iter=10 stress="-0.0008012307930091968 3.0642093637910254e-05 -2.31323277701985e-05 3.0642093637910254e-05 0.0003013210571357426 -0.00013733738606299664 -2.31323277701985e-05 -0.00013733738606299664 -0.0004284442864717457" pbc="T T T"
Si      -0.08561613       9.25775501      -1.03217008
Si      -1.52153692      -1.26194411       5.70649178
Si      -4.03648466      -3.63569043       9.65453005
Si      -0.00259829      -2.82737893       8.70588124
Si      -5.57143384      -0.36662702       8.96133302
Si       4.14638756       2.09712391       0.11258389
Si       2.17366499       0.76070596       0.33848900
Si      -1.50631595       0.40313143       7.02594174
Si      -1.94682992      -3.39068002       9.34873584
Si      -2.67439794       1.01764010       5.35826833
Si       1.15752626      -0.27198828       2.51646645
Si      -2.96002040       3.51142377       5.08072678
Si      -3.33442432      -2.83212577       6.25913082
Si      -0.54668550       6.75141313      -1.11159757
Si       1.03102445       1.41752072       3.84479754
Si       1.17890816       7.76277646      -1.84870963
Si      -0.88597693      -1.30053513       3.28698673
Si       2.48012791      -4.95850491       6.37193273
Si       0.17650735       3.18085114       2.98826975
Si      -2.80863573       2.45098570       6.91504952
Si      -1.49543246       4.41012514       3.44262247
Si      -1.82993909      -2.15471702       7.60999839
22
Lattice="5.5402103497642115 -0.657663419254693 -1.4014187317474889 -2.434300993879567 10.537798385668104 -2.0494299185242486 -4.699086949312956 -5.126288460510364 10.804097236525475" Properties=species:S:1:pos:R:3 unique_starting_index=18 config_type=initial n_minim_iter=11 stress="-0.00041611267003340387 1.1255758950615978e-05 -5.508528620224773e-05 1.1255758950615978e-05 -0.00022217884145337783 -7.435173075833856e-05 -5.508528620224773e-05 -7.435173075833856e-05 -6.21568229902307e-05" pbc="T T T"
Si      -0.08490971       9.25730801      -1.02868890
Si      -1.52140143      -1.25899463       5.70614047
Si      -4.03700308      -3.63353603       9.65481591
Si      -0.00243741      -2.82557721       8.70696934
Si      -5.57206420      -0.36472661       8.96258411
Si       4.14688154       2.09724314       0.11434673
Si       2.17425524       0.76064275       0.33956076
Si      -1.50563673       0.40510283       7.02683553
Si      -1.94604846      -3.38822707       9.34968037
Si      -2.67417920       1.01899867       5.35911464
Si       1.15716585      -0.26941766       2.51615420
Si      -2.96077278       3.51266722       5.08242815
Si      -3.33545834      -2.83050361       6.26034714
Si      -0.54678361       6.74995362      -1.11105347
Si       1.03118009       1.41803844       3.84562978
Si       1.17896545       7.76225681      -1.84630854
Si      -0.88605207      -1.29945817       3.28707508
Si       2.48108959      -4.95664782       6.37312629
Si       0.17709608       3.18137677       2.98990790
Si      -2.80930369       2.45192351       6.91590832
Si      -1.49418721       4.41198007       3.44453811
Si      -1.82915370      -2.15330000       7.60880463
22
Lattice="5.5416503598743425 -0.657852742679248 -1.40100370486102 -2.4348857933143635 10.537529894225678 -2.0470854532845517 -4.699991290961448 -5.124385339470677 10.800574715516412" Properties=species:S:1:pos:R:3 unique_starting_index=18 config_type=initial n_minim_iter=12 stress="-8.540547901585892e-05 2.1603737927424576e-05 6.888387882844122e-06 2.1603737927424576e-05 -7.118436343020919e-05 -0.00011811628356085355 6.888387882844122e-06 -0.00011811628356085355 -0.00010127848201602922" pbc="T T T"
Si      -0.08439063       9.25735824      -1.02560738
Si      -1.52145530      -1.25646314       5.70327840
Si      -4.03713408      -3.63266592       9.65153917
Si      -0.00185647      -2.82461536       8.70522829
Si      -5.57348864      -0.36323681       8.95982043
Si       4.14825553       2.09741937       0.11614213
Si       2.17507906       0.76041734       0.34036191
Si      -1.50540224       0.40674272       7.02496064
Si      -1.94665451      -3.38666766       9.34739334
Si      -2.67473590       1.02012949       5.35734567
Si       1.15697834      -0.26735164       2.51447423
Si      -2.96212164       3.51375976       5.08185880
Si      -3.33722424      -2.82938724       6.25923553
Si      -0.54696527       6.74920287      -1.11047181
Si       1.03169645       1.41829779       3.84506086
Si       1.17903246       7.76223731      -1.84425532
Si      -0.88625927      -1.29866802       3.28589946
Si       2.48240072      -4.95597513       6.37214468
Si       0.17725855       3.18196218       2.99014869
Si      -2.81087993       2.45266826       6.91468426
Si      -1.49273160       4.41385020       3.44469170
Si      -1.82877936      -2.15297147       7.60534647
22
Lattice="5.544481312037078 -0.6578893905440796 -1.400495981706191 -2.4355733084878457 10.534680555560435 -2.042531973258167 -4.702507540307912 -5.119883316790734 10.793977957364985" Properties=species:S:1:pos:R:3 unique_starting_index=18 config_type=initial n_minim_iter=13 stress="0.0003779570636511291 7.022545464030144e-05 0.0001106013487315929 7.022545464030144e-05 2.8133465237970903e-05 -2.8795535120081213e-05 0.0001106013487315929 -2.8795535120081213e-05 -0.00011236248396791934" pbc="T T T"
Si      -0.08309671       9.25513774      -1.02050715
Si      -1.52204526      -1.25247314       5.69860208
Si      -4.03837639      -3.63016509       9.64567365
Si      -0.00168282      -2.82205967       8.70171312
Si      -5.57656836      -0.36086306       8.95466615
Si       4.15038442       2.09728257       0.11810066
Si       2.17628839       0.75974749       0.34194703
Si      -1.50587923       0.40984998       7.02142238
Si      -1.94679828      -3.38195252       9.34285588
Si      -2.67601697       1.02212372       5.35450710
Si       1.15679868      -0.26451137       2.51139067
Si      -2.96462119       3.51515331       5.08027444
Si      -3.34078716      -2.82698959       6.25666873
Si      -0.54677561       6.74705806      -1.10868204
Si       1.03257052       1.41915691       3.84409366
Si       1.17953197       7.76064372      -1.84071671
Si      -0.88685288      -1.29703292       3.28365674
Si       2.48441492      -4.95327104       6.36916147
Si       0.17754444       3.18232222       2.99036460
Si      -2.81379471       2.45322066       6.91327496
Si      -1.49125304       4.41561644       3.44459791
Si      -1.82866871      -2.15159751       7.59981711
22
Lattice="5.546353295097025 -0.6581777781656132 -1.400937129530205 -2.4363464290541494 10.532470116894924 -2.0397862278831256 -4.704641967425437 -5.116412725672451 10.79254624263676" Properties=species:S:1:pos:R:3 unique_starting_index=18 config_type=initial n_minim_iter=14 stress="0.0006378325710207512 7.150567084563252e-05 0.00014114851559611443 7.150567084563252e-05 0.00019593970493645826 5.777818468745203e-05 0.00014114851559611443 5.777818468745203e-05 5.8934451597655974e-05" pbc="T T T"
Si      -0.08273018       9.25313318      -1.01734475
Si      -1.52286631      -1.24999759       5.69731483
Si      -4.03931671      -3.62789971       9.64449525
Si      -0.00154198      -2.82026838       8.70124803
Si      -5.57953119      -0.35902326       8.95363400
Si       4.15141108       2.09684220       0.11894871
Si       2.17685092       0.75934847       0.34281431
Si      -1.50651134       0.41179761       7.02111475
Si      -1.94788010      -3.37862177       9.34283939
Si      -2.67728873       1.02388824       5.35420697
Si       1.15650900      -0.26296970       2.50973829
Si      -2.96671663       3.51609437       5.08075972
Si      -3.34344912      -2.82502292       6.25662006
Si      -0.54678045       6.74564744      -1.10752994
Si       1.03267384       1.41975965       3.84453635
Si       1.17966051       7.75904443      -1.83894986
Si      -0.88743247      -1.29585545       3.28293958
Si       2.48593463      -4.95119383       6.36868867
Si       0.17739993       3.18244164       2.99109351
Si      -2.81632750       2.45342356       6.91395538
Si      -1.49142433       4.41649892       3.44517503
Si      -1.82895720      -2.15017227       7.59774814
22
Lattice="5.5473206737601854 -0.6589575620874674 -1.4019955102680701 -2.437738136861521 10.52704465183321 -2.0367723503142665 -4.705767189958142 -5.1100849881733605 10.793689595376279" Properties=species:S:1:pos:R:3 unique_starting_index=18 config_type=initial n_minim_iter=15 stress="0.0003915790544649916 6.106568645684011e-05 0.0001290505174745751 6.106568645684011e-05 0.00035775780018228295 9.437128616690858e-05 0.0001290505174745751 9.437128616690858e-05 0.00015752022508588046" pbc="T T T"
Si      -0.08326403       9.24753502      -1.01359872
Si      -1.52357825      -1.24635905       5.69736326
Si      -4.03905555      -3.62305352       9.64591977
Si      -0.00120933      -2.81758858       8.70271628
Si      -5.58113591      -0.35613753       8.95485917
Si       4.15150080       2.09528633       0.12028300
Si       2.17658492       0.75872985       0.34404963
Si      -1.50743627       0.41443594       7.02240444
Si      -1.94831775      -3.37262371       9.34482581
Si      -2.67804126       1.02595228       5.35501171
Si       1.15589349      -0.26136779       2.50825386
Si      -2.96850957       3.51660216       5.08366316
Si      -3.34571225      -2.82128674       6.25833715
Si      -0.54725854       6.74228188      -1.10610143
Si       1.03164407       1.41969105       3.84652179
Si       1.17886612       7.75465388      -1.83718887
Si      -0.88793500      -1.29394519       3.28272613
Si       2.48784806      -4.94754464       6.36963976
Si       0.17638005       3.18221412       2.99263704
Si      -2.81930207       2.45391768       6.91603900
Si      -1.49188584       4.41652540       3.44654463
Si      -1.82963576      -2.14824772       7.59744375
22
Lattice="5.549200546039235 -0.6603084033262964 -1.4036819283956994 -2.440906670248433 10.516661560709029 -2.033510706429941 -4.707370564653133 -5.099980920866006 10.796987687267832" Properties=species:S:1:pos:R:3 unique_starting_index=18 config_type=initial n_minim_iter=16 stress="0.00013403697743832697 -0.00011740224514500008 8.639718976529142e-05 -0.00011740224514500008 0.00014624020687051427 0.00012393970105984326 8.639718976529142e-05 0.00012393970105984326 0.00021755327887121502" pbc="T T T"
Si      -0.08530582       9.23697761      -1.00922175
Si      -1.52478091      -1.24166070       5.69888830
Si      -4.03940756      -3.61515167       9.64958416
Si      -0.00089947      -2.81345624       8.70565866
Si      -5.58387658      -0.35177701       8.95797465
Si       4.15195553       2.09210626       0.12206578
Si       2.17645132       0.75812140       0.34472726
Si      -1.50891553       0.41737710       7.02502169
Si      -1.94856482      -3.36406017       9.34930505
Si      -2.67983303       1.02840110       5.35671138
Si       1.15532528      -0.25954036       2.50703262
Si      -2.97135593       3.51666195       5.08761111
Si      -3.34895193      -2.81554209       6.26139968
Si      -0.54906852       6.73540885      -1.10437676
Si       1.03030138       1.41817386       3.84957642
Si       1.17786713       7.74601434      -1.83591035
Si      -0.88865139      -1.29108745       3.28293442
Si       2.49039676      -4.94193443       6.37126645
Si       0.17471159       3.18074359       2.99474071
Si      -2.82372672       2.45367290       6.92037588
Si      -1.49306465       4.41556261       3.44888754
Si      -1.83061739      -2.14474369       7.59811686
22
Lattice="5.55073003507649 -0.6610360263467845 -1.4057275711624053 -2.442234505456654 10.509317615231977 -2.0302104524115467 -4.710370753241023 -5.092542848172411 10.799888191973078" Properties=species:S:1:pos:R:3 unique_starting_index=18 config_type=initial n_minim_iter=17 stress="-0.00010139048161989814 -0.00011997028813377647 -3.007481500056961e-05 -0.00011997028813377647 0.00020096655238019883 0.00023301359983437264 -3.007481500056961e-05 0.00023301359983437264 0.00026533224430501205" pbc="T T T"
Si      -0.08589552       9.22892642      -1.00532202
Si      -1.52662662      -1.23866112       5.69969876
Si      -4.04103175      -3.60931561       9.65285452
Si      -0.00211830      -2.81025457       8.70768357
Si      -5.58712569      -0.34844443       8.96084191
Si       4.15268171       2.09026144       0.12363219
Si       2.17619579       0.75828607       0.34491986
Si      -1.51098972       0.42050811       7.02719603
Si      -1.95023611      -3.35748678       9.35241267
Si      -2.68156245       1.03064728       5.35890140
Si       1.15458076      -0.25780436       2.50593836
Si      -2.97442753       3.51675214       5.09133196
Si      -3.35325925      -2.81169257       6.26384698
Si      -0.55006139       6.73057781      -1.10249166
Si       1.02923847       1.41750582       3.85188171
Si       1.17822570       7.74029964      -1.83487453
Si      -0.88981639      -1.28891319       3.28302202
Si       2.49151397      -4.93748363       6.37243317
Si       0.17342674       3.18003854       2.99639175
Si      -2.82800605       2.45339838       6.92393222
Si      -1.49402416       4.41590782       3.45093835
Si      -1.83228855      -2.14221869       7.59884759
22
Lattice="5.551142960710323 -0.6611292202160514 -1.4064202408869053 -2.442507153935578 10.506367311097607 -2.0295073451759054 -4.711514262098195 -5.090360284594127 10.80073140762358" Properties=species:S:1:pos:R:3 unique_starting_index=18 config_type=initial n_minim_iter=18 stress="-0.0002989768308301886 -0.00011049024705641642 -6.165872468929293e-05 -0.00011049024705641642 0.0002120577088783917 0.00011762071868237918 -6.165872468929293e-05 0.00011762071868237918 0.0001278303931311791" pbc="T T T"
Si      -0.08588750       9.22526443      -1.00424960
Si      -1.52742154      -1.23788341       5.69979954
Si      -4.04137390      -3.60779875       9.65383296
Si      -0.00271855      -2.80964206       8.70811936
Si      -5.58845379      -0.34774984       8.96118539
Si       4.15284521       2.08957259       0.12435824
Si       2.17592568       0.75848115       0.34498807
Si      -1.51156206       0.42105804       7.02737059
Si      -1.95076131      -3.35545548       9.35338335
Si      -2.68172439       1.03075704       5.35910221
Si       1.15427118      -0.25709757       2.50531864
Si      -2.97566923       3.51642444       5.09231723
Si      -3.35544060      -2.81088257       6.26470018
Si      -0.55026974       6.72877151      -1.10213734
Si       1.02843021       1.41698946       3.85245497
Si       1.17839427       7.73810397      -1.83494085
Si      -0.89033732      -1.28825053       3.28287633
Si       2.49209734      -4.93595748       6.37318669
Si       0.17290768       3.17960253       2.99665503
Si      -2.82982075       2.45280131       6.92505148
Si      -1.49407406       4.41613074       3.45102935
Si      -1.83283732      -2.14185414       7.59849182
22
Lattice="5.552893396935752 -0.6609607088665922 -1.4072543374632638 -2.443243539722816 10.501344764721983 -2.029510790406375 -4.713905346372522 -5.087705662306573 10.802955118804197" Properties=species:S:1:pos:R:3 unique_starting_index=18 config_type=initial n_minim_iter=19 stress="-0.00019979069231686078 -4.972330360721381e-06 -9.855969247570544e-05 -4.972330360721381e-06 0.0001274155379592641 -8.55091212471818e-05 -9.855969247570544e-05 -8.55091212471818e-05 -6.35741283472391e-05" pbc="T T T"
Si      -0.08615111       9.21935682      -1.00309911
Si      -1.52885354      -1.23717323       5.70015760
Si      -4.04212656      -3.60647678       9.65602398
Si      -0.00331193      -2.80868051       8.70924496
Si      -5.59092449      -0.34787566       8.96197599
Si       4.15377728       2.08851597       0.12563528
Si       2.17588030       0.75862878       0.34540361
Si      -1.51222572       0.42122603       7.02763989
Si      -1.95109549      -3.35282858       9.35629168
Si      -2.68290371       1.03077542       5.35924759
Si       1.15444761      -0.25592297       2.50496287
Si      -2.97833755       3.51501007       5.09435106
Si      -3.36002081      -2.81092399       6.26697046
Si      -0.55004652       6.72629744      -1.10227304
Si       1.02830828       1.41543967       3.85331295
Si       1.17888499       7.73364874      -1.83591882
Si      -0.89122872      -1.28736010       3.28307289
Si       2.49396729      -4.93326038       6.37548738
Si       0.17236800       3.17864603       2.99721597
Si      -2.83291169       2.45123225       6.92654819
Si      -1.49367312       4.41677294       3.45058144
Si      -1.83405708      -2.14218648       7.59827555
22
Lattice="5.553361131003459 -0.661026844029762 -1.4077403570297717 -2.443920065784088 10.496262015289926 -2.0292081871877543 -4.714242794422239 -5.0842759455532 10.805086828880942" Properties=species:S:1:pos:R:3 unique_starting_index=18 config_type=initial n_minim_iter=20 stress="-0.00019705031753882904 2.5203454193337162e-05 -0.0001455720486613803 2.5203454193337162e-05 -0.00016435889321044975 -6.071111379054213e-05 -0.0001455720486613803 -6.071111379054213e-05 -9.975190827301999e-05" pbc="T T T"
Si      -0.08675517       9.21409620      -1.00211801
Si      -1.52933345      -1.23645254       5.70057395
Si      -4.04153703      -3.60422292       9.65804489
Si      -0.00305703      -2.80681653       8.71058795
Si      -5.59168292      -0.34730808       8.96337604
Si       4.15384613       2.08736537       0.12675600
Si       2.17566966       0.75832342       0.34577346
Si      -1.51224234       0.42205724       7.02859790
Si      -1.95076938      -3.34986634       9.35898904
Si      -2.68300050       1.03105674       5.36018049
Si       1.15468817      -0.25520970       2.50520928
Si      -2.97928330       3.51440573       5.09613096
Si      -3.36196160      -2.80997659       6.26902794
Si      -0.55010537       6.72344997      -1.10212928
Si       1.02759935       1.41442882       3.85431138
Si       1.17852923       7.72927756      -1.83606270
Si      -0.89149962      -1.28633785       3.28354965
Si       2.49512152      -4.93040205       6.37734630
Si       0.17215735       3.17745163       2.99829794
Si      -2.83412647       2.45011471       6.92823904
Si      -1.49309667       4.41691226       3.45087445
Si      -1.83427283      -2.14156282       7.59897225
22
Lattice="5.553821458313596 -0.6613672940612887 -1.4064071073255637 -2.4463514908496395 10.48934908736687 -2.0302638884349244 -4.711024749747274 -5.0800149388489055 10.805825139576179" Properties=species:S:1:pos:R:3 unique_starting_index=18 config_type=initial n_minim_iter=21 stress="0.00010196543189316091 0.00020684083744410323 4.992107017898144e-06 0.00020684083744410323 -0.0003911913873220911 -0.00019245030841134232 4.992107017898144e-06 -0.00019245030841134232 -0.0002547749730988515" pbc="T T T"
Si      -0.08893763       9.20676551      -1.00172761
Si      -1.52862812      -1.23683303       5.70029859
Si      -4.03733938      -3.60171588       9.65872785
Si       0.00121982      -2.80524708       8.71142792
Si      -5.59059839      -0.34647593       8.96200306
Si       4.15396086       2.08566907       0.13020314
Si       2.17547363       0.75696916       0.34696315
Si      -1.50976742       0.42294914       7.02749371
Si      -1.94652612      -3.34526973       9.36179357
Si      -2.68209921       1.03124862       5.35930202
Si       1.15658916      -0.25520496       2.50576059
Si      -2.97989511       3.51376741       5.09731425
Si      -3.36312203      -2.80892502       6.27114147
Si      -0.55179259       6.71886985      -1.10240412
Si       1.02805600       1.41282687       3.85552010
Si       1.17748209       7.72335739      -1.83637532
Si      -0.89099579      -1.28511016       3.28371495
Si       2.50023680      -4.92721529       6.38216163
Si       0.17299372       3.17517190       2.99993408
Si      -2.83388893       2.44836369       6.92902754
Si      -1.49098383       4.41889131       3.44876384
Si      -1.83300787      -2.14250595       7.59778221
