6
Lattice="3.48335 -2.1329367139049666e-16 -2.1329367139049666e-16 2.132936713904967e-16 3.48335 -2.4564269160487815e-49 5.764908465540246e-16 5.057132382029366e-32 9.414809999999997" Properties=species:S:1:pos:R:3 unique_starting_index=12 config_type=initial n_minim_iter=1 pbc="T T T"
Si       0.29504427       1.74167500       6.86964416
Si       0.29504427       1.74167500       2.54516584
Si       2.03671927       0.94167630       4.70740500
Si       2.03671927       2.54167370       4.70740500
Si       0.14378781      -0.00000000      -0.00000000
Si       1.88546281      -0.00000000      -0.00000000
6
Lattice="3.505900309865182 -2.1467447963030544e-16 -2.13777676275435e-16 2.1450009640898658e-16 3.503052415738641 -5.124782578817682e-36 5.792991589983952e-16 5.087121504587586e-32 9.421088207650982" Properties=species:S:1:pos:R:3 unique_starting_index=12 config_type=initial n_minim_iter=2 pbc="T T T"
Si       0.29695684       1.75152621       6.87411346
Si       0.29695684       1.75152621       2.54697475
Si       2.04990527       0.94601841       4.71054410
Si       2.04990527       2.55703400       4.71054410
Si       0.14471553      -0.00000000      -0.00000000
Si       1.89766526      -0.00000000      -0.00000000
6
Lattice="3.9699686234639247 -2.430882929024624e-16 -2.2276444794036526e-16 2.398693206808869e-16 3.917327307132654 8.254316769946982e-17 6.401403650630005e-16 2.237433323264278e-16 9.557052347743284" Properties=species:S:1:pos:R:3 unique_starting_index=12 config_type=initial n_minim_iter=3 pbc="T T T"
Si       0.33629375       1.95866365       6.97122360
Si       0.33629375       1.95866365       2.58582875
Si       2.32126738       1.03461422       4.77852617
Si       2.32126738       2.88271308       4.77852617
Si       0.16378393      -0.00000000      -0.00000000
Si       2.14884224      -0.00000000      -0.00000000
6
Lattice="4.093541307673736 -2.498106305041789e-16 -2.2496970952698785e-16 2.5306209636784096e-16 4.119259919164115 5.619902001334608e-17 6.557637786180996e-16 1.613493776121996e-16 9.570890374807547" Properties=species:S:1:pos:R:3 unique_starting_index=12 config_type=initial n_minim_iter=4 pbc="T T T"
Si       0.34672204       2.05962996       6.97885157
Si       0.34672204       2.05962996       2.59203880
Si       2.39357383       1.06455507       4.78544519
Si       2.39357383       3.05470485       4.78544519
Si       0.16796881      -0.00000000      -0.00000000
Si       2.21661578      -0.00000000      -0.00000000
6
Lattice="4.117662665751895 -2.518663881312075e-16 -2.4483473688022483e-16 2.549660776576163e-16 4.159824536632182 7.055199998358386e-18 5.970081396142256e-16 3.851001710114761e-17 9.414169463482255" Properties=species:S:1:pos:R:3 unique_starting_index=12 config_type=initial n_minim_iter=5 pbc="T T T"
Si       0.34847141       2.07991227       6.86169475
Si       0.34847141       2.07991227       2.55247472
Si       2.40772589       1.06323264       4.70708473
Si       2.40772589       3.09659190       4.70708473
Si       0.16862551      -0.00000000      -0.00000000
Si       2.23050209      -0.00000000      -0.00000000
6
Lattice="4.139060224584944 -2.5420438968329914e-16 -2.870272704040835e-16 2.5605355071425724e-16 4.194333065222214 1.6087845785263793e-16 4.706366859842835e-16 4.5852470137238e-16 9.141644375315353" Properties=species:S:1:pos:R:3 unique_starting_index=12 config_type=initial n_minim_iter=6 pbc="T T T"
Si       0.34971803       2.09716653       6.65865098
Si       0.34971803       2.09716653       2.48299339
Si       2.42045428       1.06080737       4.57082219
Si       2.42045428       3.13352570       4.57082219
Si       0.16916093      -0.00000000      -0.00000000
Si       2.24312911      -0.00000000      -0.00000000
6
Lattice="4.178973088777068 -2.5810809380029364e-16 -3.897166617384708e-16 2.5909281695002267e-16 4.267537404452416 2.196878928256664e-17 1.5680708181209873e-16 1.2949194666918306e-16 8.500791079483804" Properties=species:S:1:pos:R:3 unique_starting_index=12 config_type=initial n_minim_iter=7 pbc="T T T"
Si       0.35183451       2.13376870       6.18341599
Si       0.35183451       2.13376870       2.31737509
Si       2.44457836       1.06831855       4.25039554
Si       2.44457836       3.19921885       4.25039554
Si       0.17015544      -0.00000000      -0.00000000
Si       2.26634057      -0.00000000      -0.00000000
6
Lattice="4.214478615370911 -2.627805266543687e-16 -4.427482846066748e-16 2.57669259247482e-16 4.285414849679751 -6.103128754023826e-17 -6.875111372138661e-17 -9.152508239066466e-17 7.734948086264688" Properties=species:S:1:pos:R:3 unique_starting_index=12 config_type=initial n_minim_iter=8 pbc="T T T"
Si       0.35344388       2.14270742       5.62044687
Si       0.35344388       2.14270742       2.11450122
Si       2.46663406       1.11055223       3.86747404
Si       2.46663406       3.17486262       3.86747404
Si       0.17151848      -0.00000000      -0.00000000
Si       2.28586637      -0.00000000      -0.00000000
6
Lattice="4.240468566111259 -2.667676157210616e-16 -3.8219880399400675e-16 2.6373452456991084e-16 4.420844086445342 2.8573291324633675e-17 5.694546070147193e-17 1.9436374335826573e-16 7.509526672195812" Properties=species:S:1:pos:R:3 unique_starting_index=12 config_type=initial n_minim_iter=9 pbc="T T T"
Si       0.35482632       2.21042204       5.45511775
Si       0.35482632       2.21042204       2.05440892
Si       2.48190010       1.14831587       3.75476334
Si       2.48190010       3.27252822       3.75476334
Si       0.17411573      -0.00000000      -0.00000000
Si       2.29990827      -0.00000000      -0.00000000
6
Lattice="4.235201590120619 -2.7238844813136567e-16 -4.1885335236352956e-16 2.5518583334797205e-16 4.379964689125184 -2.944960648456142e-16 -5.960926684884405e-17 -6.797837080412786e-16 7.374731726364533" Properties=species:S:1:pos:R:3 unique_starting_index=12 config_type=initial n_minim_iter=10 pbc="T T T"
Si       0.35374533       2.18998234       5.35635651
Si       0.35374533       2.18998234       2.01837521
Si       2.47887950       1.14484222       3.68736586
Si       2.47887950       3.23512246       3.68736586
Si       0.17648478      -0.00000000      -0.00000000
Si       2.29562264      -0.00000000      -0.00000000
6
Lattice="4.245776456229805 -2.7774502680714567e-16 -3.6608647003742484e-16 2.519537292815832e-16 4.403295542046181 -4.583356024816713e-17 7.032154536103227e-17 -5.57707041638665e-18 7.299164216475374" Properties=species:S:1:pos:R:3 unique_starting_index=12 config_type=initial n_minim_iter=11 pbc="T T T"
Si       0.35417050       2.20164777       5.30102249
Si       0.35417050       2.20164777       1.99814173
Si       2.48521816       1.14872372       3.64958211
Si       2.48521816       3.25457182       3.64958211
Si       0.17763534      -0.00000000      -0.00000000
Si       2.30126257      -0.00000000      -0.00000000
6
Lattice="4.251863628838679 -2.8341477473992373e-16 -4.2182539862308765e-16 2.485798169784578e-16 4.432808425632165 3.2024969217564276e-16 -1.0057158680598762e-16 9.469838685892615e-16 7.133267678779694" Properties=species:S:1:pos:R:3 unique_starting_index=12 config_type=initial n_minim_iter=12 pbc="T T T"
Si       0.35359326       2.21640421       5.17964686
Si       0.35359326       2.21640421       1.95362082
Si       2.48916799       1.15192032       3.56663384
Si       2.48916799       3.28088810       3.56663384
Si       0.17952506      -0.00000000      -0.00000000
Si       2.30432332      -0.00000000      -0.00000000
6
Lattice="4.251931620470318 -2.889803237763925e-16 -3.258862567129661e-16 2.4128282868899273e-16 4.40710200708317 1.5393685788788652e-16 1.5243895629378642e-16 4.963338490143062e-16 7.0980144203213476" Properties=species:S:1:pos:R:3 unique_starting_index=12 config_type=initial n_minim_iter=13 pbc="T T T"
Si       0.35335373       2.20355100       5.15391331
Si       0.35335373       2.20355100       1.94410111
Si       2.48931515       1.14898598       3.54900721
Si       2.48931515       3.25811602       3.54900721
Si       0.17974474      -0.00000000      -0.00000000
Si       2.30441903      -0.00000000      -0.00000000
6
Lattice="4.252715595244889 -2.9383787663110087e-16 -4.696262276054832e-16 2.3674408375022417e-16 4.4111395247532785 8.817224082139741e-16 -2.387820917059946e-16 2.4695551219869717e-15 7.0688473788717525" Properties=species:S:1:pos:R:3 unique_starting_index=12 config_type=initial n_minim_iter=14 pbc="T T T"
Si       0.35321254       2.20556976       5.13263424
Si       0.35321254       2.20556976       1.93621313
Si       2.48986723       1.14925062       3.53442369
Si       2.48986723       3.26188890       3.53442369
Si       0.17995836      -0.00000000      -0.00000000
Si       2.30488992      -0.00000000      -0.00000000
6
Lattice="4.254404876837358 -2.988732038003422e-16 -2.240050821219038e-16 2.3245638547574983e-16 4.420606908094926 2.5090059976860316e-15 4.057133619358856e-16 6.929028094559524e-15 6.983683247472668" Properties=species:S:1:pos:R:3 unique_starting_index=12 config_type=initial n_minim_iter=15 pbc="T T T"
Si       0.35275247       2.21030345       5.07052132
Si       0.35275247       2.21030345       1.91316193
Si       2.49113461       1.14956020       3.49184162
Si       2.49113461       3.27104671       3.49184162
Si       0.18054356      -0.00000000      -0.00000000
Si       2.30593583      -0.00000000      -0.00000000
6
Lattice="4.254993273264144 -3.0373471388111543e-16 -6.371322977232943e-16 2.2706940858989246e-16 4.41274306350458 3.710169598604436e-15 -7.109223415107357e-16 1.0187205759400643e-14 6.960749731680634" Properties=species:S:1:pos:R:3 unique_starting_index=12 config_type=initial n_minim_iter=16 pbc="T T T"
Si       0.35264473       2.20637153       5.05380756
Si       0.35264473       2.20637153       1.90694217
Si       2.49154087       1.14857454       3.48037487
Si       2.49154087       3.26416852       3.48037487
Si       0.18069441      -0.00000000      -0.00000000
Si       2.30631846      -0.00000000      -0.00000000
6
Lattice="4.255604104896585 -3.08368293395111e-16 9.750090418784486e-17 2.2255867125713086e-16 4.414027321494545 3.503867834782847e-15 1.2677245318749263e-15 9.655584730269102e-15 6.943521383576198" Properties=species:S:1:pos:R:3 unique_starting_index=12 config_type=initial n_minim_iter=17 pbc="T T T"
Si       0.35257881       2.20701366       5.04125391
Si       0.35257881       2.20701366       1.90226747
Si       2.49194028       1.14853164       3.47176069
Si       2.49194028       3.26549569       3.47176069
Si       0.18081804      -0.00000000       0.00000000
Si       2.30670149      -0.00000000       0.00000000
6
Lattice="4.2562033616671835 -3.129053577735581e-16 -1.2237942930801487e-15 2.1804434946862962e-16 4.41393290127435 3.541915115495728e-15 -2.2980880335886085e-15 9.78100550771281e-15 6.926391589619518" Properties=species:S:1:pos:R:3 unique_starting_index=12 config_type=initial n_minim_iter=18 pbc="T T T"
Si       0.35251383       2.20696645       5.02877338
Si       0.35251383       2.20696645       1.89761821
Si       2.49232969       1.14835206       3.46319579
Si       2.49232969       3.26558085       3.46319579
Si       0.18094054      -0.00000000      -0.00000000
Si       2.30708150      -0.00000000      -0.00000000
6
Lattice="4.258752115484477 -3.173738818406032e-16 1.2859490648836275e-15 2.1354662683310577e-16 4.411860458634504 3.876316298496655e-15 4.416715009850857e-15 1.0779982861425117e-14 6.856736596546128" Properties=species:S:1:pos:R:3 unique_starting_index=12 config_type=initial n_minim_iter=19 pbc="T T T"
Si       0.35225578       2.20593023       4.97803610
Si       0.35225578       2.20593023       1.87870050
Si       2.49396985       1.14746371       3.42836830
Si       2.49396985       3.26439675       3.42836830
Si       0.18145171      -0.00000000       0.00000000
Si       2.30870319      -0.00000000       0.00000000
6
Lattice="4.291006266863643 -3.229565782722031e-16 -5.4219547923295074e-15 2.0917945380407755e-16 4.4076310418686635 5.291049295756234e-15 -1.2753885926733442e-14 1.554768379351084e-14 6.234101169143352" Properties=species:S:1:pos:R:3 unique_starting_index=12 config_type=initial n_minim_iter=20 pbc="T T T"
Si       0.35040431       2.20381552       4.52515562
Si       0.35040431       2.20381552       1.70894555
Si       2.51401513       1.14068935       3.11705058
Si       2.51401513       3.26694169       3.11705058
Si       0.18702483      -0.00000000      -0.00000000
Si       2.32871438      -0.00000000      -0.00000000
6
Lattice="4.29824744932667 -3.2584176223933473e-16 1.397111216315708e-14 2.0528020038539261e-16 4.389643797388725 6.221096038247422e-15 3.945344301990599e-14 1.8061130589776526e-14 6.206433505924837" Properties=species:S:1:pos:R:3 unique_starting_index=12 config_type=initial n_minim_iter=21 pbc="T T T"
Si       0.35092486       2.19482190       4.50517155
Si       0.35092486       2.19482190       1.70126195
Si       2.51812966       1.13870451       3.10321675
Si       2.51812966       3.25093929       3.10321675
Si       0.18754665      -0.00000000       0.00000000
Si       2.33283533      -0.00000000       0.00000000
6
Lattice="4.303693460503264 -3.5938473137268377e-16 -1.685840999529633e-14 1.7225382095575216e-16 4.393312712342061 7.589368964408447e-15 -4.371029702765126e-14 2.1836539350892585e-14 6.185149844349019" Properties=species:S:1:pos:R:3 unique_starting_index=12 config_type=initial n_minim_iter=22 pbc="T T T"
Si       0.35130861       2.19665636       4.48980045
Si       0.35130861       2.19665636       1.69534939
Si       2.52120994       1.13900068       3.09257492
Si       2.52120994       3.25431203       3.09257492
Si       0.18795011      -0.00000000      -0.00000000
Si       2.33596755      -0.00000000      -0.00000000
6
Lattice="4.388233224069336 -3.0424610027807187e-16 -1.971111286173212e-14 2.3517224743948537e-16 4.451259605164611 1.0191997929402984e-14 -5.442738301912697e-14 3.0168022009040285e-14 5.838748775233646" Properties=species:S:1:pos:R:3 unique_starting_index=12 config_type=initial n_minim_iter=23 pbc="T T T"
Si       0.35711398       2.22562980       4.23958454
Si       0.35711398       2.22562980       1.59916424
Si       2.56876257       1.14322911       2.91937439
Si       2.56876257       3.30803049       2.91937439
Si       0.19424682      -0.00000000      -0.00000000
Si       2.38538639      -0.00000000      -0.00000000
6
Lattice="4.412183850293313 -3.162118606948151e-16 -2.4398120295046616e-14 2.1765265276040593e-16 4.360121982124141 1.3573975418270569e-14 -6.804145821325981e-14 3.9100004846773795e-14 5.754316343565364" Properties=species:S:1:pos:R:3 unique_starting_index=12 config_type=initial n_minim_iter=24 pbc="T T T"
Si       0.35954112       2.18006099       4.17920302
Si       0.35954112       2.18006099       1.57511333
Si       2.58132453       1.13503738       2.87715817
Si       2.58132453       3.22508460       2.87715817
Si       0.19586793      -0.00000000      -0.00000000
Si       2.39980490      -0.00000000      -0.00000000
6
Lattice="4.412510483185304 -3.6037693195082113e-16 -3.0596709238174787e-14 1.7877562656488526e-16 4.4281962921359455 1.5156348674987117e-14 -8.48631084517505e-14 4.3949490060357933e-14 5.748054652802521" Properties=species:S:1:pos:R:3 unique_starting_index=12 config_type=initial n_minim_iter=25 pbc="T T T"
Si       0.35994352       2.21409815       4.17483135
Si       0.35994352       2.21409815       1.57322330
Si       2.58081007       1.14736171       2.87402733
Si       2.58081007       3.28083458       2.87402733
Si       0.19619000      -0.00000000      -0.00000000
Si       2.40033454      -0.00000000      -0.00000000
6
Lattice="4.414575235142282 -3.714288795287933e-16 -3.844151781365671e-14 1.6673638015734317e-16 4.4168946447566135 1.837375242558372e-14 -1.0627945660099025e-13 5.26337166891628e-14 5.734051824926362" Properties=species:S:1:pos:R:3 unique_starting_index=12 config_type=initial n_minim_iter=26 pbc="T T T"
Si       0.36033777       2.20844732       4.16486851
Si       0.36033777       2.20844732       1.56918331
Si       2.58149316       1.14761495       2.86702591
Si       2.58149316       3.26927970       2.86702591
Si       0.19655971      -0.00000000      -0.00000000
Si       2.40177729      -0.00000000      -0.00000000
6
Lattice="4.415596434508704 -5.377513343760313e-16 -4.8413180373808064e-14 1.1874327599528517e-18 4.424639298820604 2.280073031845198e-14 -1.33363378508699e-13 6.473608141430601e-14 5.727127973542231" Properties=species:S:1:pos:R:3 unique_starting_index=12 config_type=initial n_minim_iter=27 pbc="T T T"
Si       0.36058371       2.21231965       4.15996730
Si       0.36058371       2.21231965       1.56716068
Si       2.58173190       1.14932812       2.86356399
Si       2.58173190       3.27531118       2.86356399
Si       0.19678750      -0.00000000      -0.00000000
Si       2.40254222      -0.00000000      -0.00000000
