12
Lattice="5.405651385182141 0.210125303023454 0.7986191458435884 -1.1198663751678175 7.261330770062878 -2.66260713567062 0.90935077227202 -3.7251378926589243 8.060571372357309" Properties=species:S:1:pos:R:3 unique_starting_index=44 config_type=initial n_minim_iter=1 energy=-1956.217259737199 free_energy=-1956.217259737199 pbc="T T T"
Si       0.98266479       0.23643616       5.64715324
Si      -0.51534590       2.50305566       1.61091296
Si       0.63352539       3.28163705       3.47798391
Si       2.69060278       2.85903059       3.04966405
Si       5.64072979       2.42433068       6.19990477
Si       4.90957335      -1.05512252       6.18875105
Si       3.57363768       4.41745010      -0.71488576
Si      -0.23635355       3.30395581      -0.42069940
Si       2.86903762      -0.39087096       6.39038616
Si       5.41749173       0.44378277       2.55974060
Si       1.35270902      -1.87061575       6.24764402
Si       3.30500896      -2.33635582       5.53835591
12
Lattice="5.405787094394377 0.21007182025311383 0.798636257287802 -1.119962200268193 7.26129961077776 -2.6626839543676235 0.9094200361377103 -3.725166212325665 8.060686696859909" Properties=species:S:1:pos:R:3 unique_starting_index=44 config_type=initial n_minim_iter=2 stress="0.00035703392408447255 -9.926714123790096e-05 -1.4022547656166331e-05 -9.926714123790096e-05 9.710186273708946e-05 -1.0180266021285091e-05 -1.4022547656166331e-05 -1.0180266021285091e-05 0.0001417992358097315" pbc="T T T"
Si       0.98270908       0.23638205       5.64723670
Si      -0.51535035       2.50300437       1.61093175
Si       0.63348798       3.28162749       3.47801347
Si       2.69068653       2.85894245       3.04966003
Si       5.64085336       2.42422885       6.19995574
Si       4.90972495      -1.05516149       6.18884827
Si       3.57366366       4.41735923      -0.71492880
Si      -0.23636268       3.30392472      -0.42070275
Si       2.86909877      -0.39091769       6.39048210
Si       5.41761587       0.44374080       2.55975884
Si       1.35275794      -1.87067900       6.24771261
Si       3.30512777      -2.33639577       5.53842656
12
Lattice="5.405696505368116 0.21007857412260772 0.7986512400614828 -1.1199314788805577 7.2611548506396755 -2.662715327142931 0.9094239244449239 -3.7251294493009053 8.060667275519187" Properties=species:S:1:pos:R:3 unique_starting_index=44 config_type=initial n_minim_iter=3 stress="-1.1932466983285293e-05 -6.443519996516716e-05 -3.800807293966324e-05 -6.443519996516716e-05 -0.00020757806809714049 -6.418839184000017e-05 -3.800807293966324e-05 -6.418839184000017e-05 5.707178670180485e-06" pbc="T T T"
Si       0.98272700       0.23633844       5.64724005
Si      -0.51529214       2.50290576       1.61092877
Si       0.63346224       3.28159232       3.47798974
Si       2.69070333       2.85884239       3.04960413
Si       5.64077556       2.42416122       6.19991171
Si       4.90966975      -1.05512018       6.18885582
Si       3.57358733       4.41723868      -0.71495383
Si      -0.23631762       3.30384248      -0.42069933
Si       2.86903708      -0.39092100       6.39048040
Si       5.41751557       0.44376411       2.55974028
Si       1.35273626      -1.87069950       6.24767368
Si       3.30508947      -2.33636021       5.53840873
12
Lattice="5.4056659456834595 0.21016931247274057 0.7987026271188256 -1.1198448081173524 7.26131803808047 -2.6626483632462667 0.9094423424689397 -3.725146937496116 8.060607822899149" Properties=species:S:1:pos:R:3 unique_starting_index=44 config_type=initial n_minim_iter=4 stress="3.1982789941435274e-06 3.234020044009504e-05 -2.6585662430553713e-05 3.234020044009504e-05 4.2313757590606425e-05 2.2745053037410655e-05 -2.6585662430553713e-05 2.2745053037410655e-05 -1.943104450176828e-05" pbc="T T T"
Si       0.98278595       0.23641671       5.64725302
Si      -0.51520816       2.50295767       1.61095681
Si       0.63351541       3.28175699       3.47801920
Si       2.69078237       2.85896872       3.04961821
Si       5.64081976       2.42436895       6.19994917
Si       4.90967612      -1.05500636       6.18887529
Si       3.57360590       4.41738006      -0.71488093
Si      -0.23625250       3.30392091      -0.42065630
Si       2.86905030      -0.39082477       6.39049511
Si       5.41749234       0.44390160       2.55976874
Si       1.35274780      -1.87068840       6.24762731
Si       3.30508970      -2.33632087       5.53838664
12
Lattice="5.405626704697845 0.21016115369881508 0.7988920515432024 -1.1199338303199051 7.26142296436148 -2.6627241019687777 0.9097110385394948 -3.7252161457751805 8.060712557370811" Properties=species:S:1:pos:R:3 unique_starting_index=44 config_type=initial n_minim_iter=5 stress="1.4673021538151867e-05 1.9153910646203584e-05 0.0001350787584343811 1.9153910646203584e-05 2.5820463258574954e-05 -9.207742605289929e-05 0.0001350787584343811 -9.207742605289929e-05 -1.4886451972651775e-05" pbc="T T T"
Si       0.98294902       0.23645687       5.64735419
Si      -0.51508261       2.50293232       1.61098507
Si       0.63358938       3.28183561       3.47807439
Si       2.69089084       2.85897147       3.04966943
Si       5.64094247       2.42436671       6.20015698
Si       4.90979785      -1.05502818       6.18909182
Si       3.57351692       4.41738160      -0.71476020
Si      -0.23623583       3.30393494      -0.42065366
Si       2.86920130      -0.39088031       6.39069380
Si       5.41748232       0.44394537       2.55993113
Si       1.35293577      -1.87069684       6.24771694
Si       3.30527319      -2.33635692       5.53853348
12
Lattice="5.405514684985073 0.21013927422943415 0.798864052200051 -1.1199535608760065 7.2614018315867614 -2.662533496301804 0.9096573769700871 -3.725004656649185 8.060712037278817" Properties=species:S:1:pos:R:3 unique_starting_index=44 config_type=initial n_minim_iter=6 stress="-7.569350843435028e-05 -5.2967180482479245e-05 -1.4384230828926785e-05 -5.2967180482479245e-05 3.125720141895287e-05 1.7832857185628205e-05 -1.4384230828926785e-05 1.7832857185628205e-05 9.430812521551557e-05" pbc="T T T"
Si       0.98286850       0.23668167       5.64745722
Si      -0.51501513       2.50293113       1.61113901
Si       0.63348791       3.28200742       3.47823471
Si       2.69083184       2.85904385       3.04970077
Si       5.64074028       2.42450588       6.20023802
Si       4.90963418      -1.05487661       6.18910455
Si       3.57338957       4.41729161      -0.71462281
Si      -0.23622981       3.30391945      -0.42052790
Si       2.86905406      -0.39075751       6.39081696
Si       5.41731376       0.44404696       2.55988191
Si       1.35284969      -1.87048641       6.24771671
Si       3.30523637      -2.33622735       5.53849661
12
Lattice="5.405588709776065 0.21020788192495263 0.7988501577828606 -1.1198850680460837 7.261320843648521 -2.662409469817883 0.9096276063604921 -3.724895907918875 8.060508965651184" Properties=species:S:1:pos:R:3 unique_starting_index=44 config_type=initial n_minim_iter=7 stress="7.714383983782136e-05 3.0397423545563392e-05 -1.1006528798545299e-05 3.0397423545563392e-05 -6.83452872097191e-05 3.840757060843118e-05 -1.1006528798545299e-05 3.840757060843118e-05 -5.7088988490096064e-05" pbc="T T T"
Si       0.98287892       0.23676221       5.64735207
Si      -0.51493793       2.50288826       1.61115609
Si       0.63352873       3.28205182       3.47819767
Si       2.69091197       2.85909281       3.04961945
Si       5.64082846       2.42461330       6.20011212
Si       4.90967887      -1.05474036       6.18895977
Si       3.57346628       4.41726290      -0.71452483
Si      -0.23618272       3.30387416      -0.42048819
Si       2.86908178      -0.39067916       6.39071924
Si       5.41736944       0.44416736       2.55980236
Si       1.35282902      -1.87038031       6.24755975
Si       3.30527905      -2.33612852       5.53835149
12
Lattice="5.405377545406257 0.2102829639231471 0.7989136225208199 -1.1197870537100727 7.261778558284993 -2.662426147756268 0.9096635970102832 -3.7251754690565275 8.060388806665546" Properties=species:S:1:pos:R:3 unique_starting_index=44 config_type=initial n_minim_iter=8 stress="-2.7706632379610816e-05 -2.7142089424584147e-05 -4.191995265448546e-05 -2.7142089424584147e-05 6.836499534660288e-05 -4.749002376585846e-05 -4.191995265448546e-05 -4.749002376585846e-05 -2.6714563064072427e-05" pbc="T T T"
Si       0.98288135       0.23674429       5.64725278
Si      -0.51457386       2.50285196       1.61123366
Si       0.63361971       3.28233982       3.47811896
Si       2.69088513       2.85935579       3.04934391
Si       5.64061287       2.42483245       6.19995067
Si       4.90953571      -1.05466608       6.18886797
Si       3.57324001       4.41740679      -0.71423586
Si      -0.23610987       3.30398945      -0.42045944
Si       2.86905791      -0.39078842       6.39083815
Si       5.41708118       0.44441586       2.55966872
Si       1.35281196      -1.87048450       6.24738746
Si       3.30526972      -2.33630270       5.53829321
12
Lattice="5.405374359655406 0.2103986292106528 0.7990665634038668 -1.1197167409534545 7.2616529273008945 -2.6623227918090153 0.9098058825900694 -3.7249714979216617 8.060372552428662" Properties=species:S:1:pos:R:3 unique_starting_index=44 config_type=initial n_minim_iter=9 stress="-4.628303872490062e-06 3.303691727219768e-05 1.8715673342733773e-05 3.303691727219768e-05 -4.024223848750067e-05 3.191555504399315e-05 1.8715673342733773e-05 3.191555504399315e-05 5.828134366220409e-05" pbc="T T T"
Si       0.98300877       0.23688532       5.64731904
Si      -0.51434692       2.50278903       1.61133616
Si       0.63379623       3.28244649       3.47821415
Si       2.69099672       2.85949038       3.04937348
Si       5.64075429       2.42503528       6.20013551
Si       4.90964049      -1.05438632       6.18896119
Si       3.57323966       4.41736257      -0.71392295
Si      -0.23605290       3.30392257      -0.42036103
Si       2.86917598      -0.39063722       6.39101202
Si       5.41708362       0.44463414       2.55976052
Si       1.35296613      -1.87034468       6.24735872
Si       3.30537814      -2.33611639       5.53836214
12
Lattice="5.405367052557392 0.21033729701439322 0.7990826815112407 -1.119823278802984 7.261896477165481 -2.6622668904362667 0.9099318075691208 -3.725161060347262 8.060010518349165" Properties=species:S:1:pos:R:3 unique_starting_index=44 config_type=initial n_minim_iter=10 stress="-1.5722228653433914e-06 -0.00010544604950091885 4.534890567582572e-05 -0.00010544604950091885 9.715217421235705e-06 7.449871734664552e-05 4.534890567582572e-05 7.449871734664552e-05 -0.0001073550883186679" pbc="T T T"
Si       0.98304421       0.23683063       5.64709135
Si      -0.51420047       2.50280516       1.61129295
Si       0.63384199       3.28253677       3.47800673
Si       2.69097743       2.85955118       3.04908378
Si       5.64073588       2.42494858       6.19982513
Si       4.90970333      -1.05447367       6.18863708
Si       3.57312914       4.41741206      -0.71372085
Si      -0.23607527       3.30396297      -0.42033041
Si       2.86913819      -0.39076057       6.39078710
Si       5.41704754       0.44461486       2.55960540
Si       1.35306352      -1.87048834       6.24702240
Si       3.30549738      -2.33622141       5.53814848
12
Lattice="5.405352174065413 0.21047488940721293 0.7990279579507351 -1.1195818995383053 7.262212814726998 -2.6625296058272694 0.9097699441915352 -3.725608846173845 8.060012878114994" Properties=species:S:1:pos:R:3 unique_starting_index=44 config_type=initial n_minim_iter=11 stress="1.6903589971542798e-06 4.258072780461023e-05 -1.5620701019524337e-05 4.258072780461023e-05 -3.0637549167780956e-06 -2.9776388691881826e-05 -1.5620701019524337e-05 -2.9776388691881826e-05 3.0323497187128135e-05" pbc="T T T"
Si       0.98298005       0.23664863       5.64701128
Si      -0.51392522       2.50275098       1.61124195
Si       0.63398917       3.28254934       3.47777593
Si       2.69102145       2.85964213       3.04869201
Si       5.64070620       2.42485301       6.19952217
Si       4.90962709      -1.05456354       6.18843753
Si       3.57320613       4.41764154      -0.71370030
Si      -0.23594687       3.30398050      -0.42038269
Si       2.86895444      -0.39097898       6.39074354
Si       5.41697326       0.44473802       2.55940011
Si       1.35294143      -1.87081655       6.24690021
Si       3.30545160      -2.33636466       5.53813499
12
Lattice="5.405329469216757 0.21046462449708392 0.7990198489024745 -1.1195885096752136 7.262524985586213 -2.6626014576009087 0.909809650673917 -3.725932698131251 8.059769505613813" Properties=species:S:1:pos:R:3 unique_starting_index=44 config_type=initial n_minim_iter=12 stress="1.0756458706850104e-06 -7.366318512606382e-07 8.941802361299656e-06 -7.366318512606382e-07 -1.5681402735463557e-06 5.65638514942113e-06 8.941802361299656e-06 5.65638514942113e-06 -1.083475519538872e-05" pbc="T T T"
Si       0.98287374       0.23656091       5.64685751
Si      -0.51370159       2.50277208       1.61120259
Si       0.63408063       3.28260905       3.47753869
Si       2.69101601       2.85972927       3.04829311
Si       5.64066523       2.42468431       6.19919237
Si       4.90966264      -1.05465618       6.18813536
Si       3.57315596       4.41774651      -0.71354650
Si      -0.23592402       3.30401512      -0.42035264
Si       2.86890350      -0.39114693       6.39059800
Si       5.41690682       0.44472524       2.55920390
Si       1.35289899      -1.87109630       6.24657935
Si       3.30555134      -2.33650005       5.53798161
12
Lattice="5.405234366439653 0.21044854581083572 0.7988594405011924 -1.1194806837245854 7.262989324367057 -2.662931507951973 0.9095754985320621 -3.7265272479524865 8.059858540523733" Properties=species:S:1:pos:R:3 unique_starting_index=44 config_type=initial n_minim_iter=13 stress="-1.0918081313787732e-05 -9.358758271169296e-06 -2.101363368548011e-05 -9.358758271169296e-06 6.421469903643968e-06 -2.3864737725880852e-05 -2.101363368548011e-05 -2.3864737725880852e-05 -4.267485743935379e-05" pbc="T T T"
Si       0.98265901       0.23635233       5.64702703
Si      -0.51350278       2.50289150       1.61120051
Si       0.63407692       3.28256943       3.47731562
Si       2.69096678       2.85988963       3.04766415
Si       5.64035894       2.42436459       6.19879477
Si       4.90928907      -1.05486187       6.18788073
Si       3.57302065       4.41785744      -0.71362866
Si      -0.23584386       3.30404743      -0.42041692
Si       2.86865890      -0.39152174       6.39059880
Si       5.41672807       0.44452950       2.55888475
Si       1.35267637      -1.87154227       6.24638151
Si       3.30542913      -2.33685982       5.53795724
12
Lattice="5.40524720219018 0.21054259372430442 0.798921982410764 -1.1193550266698507 7.263295040028206 -2.6632338832222975 0.9095376837694452 -3.726812492688497 8.060396725517338" Properties=species:S:1:pos:R:3 unique_starting_index=44 config_type=initial n_minim_iter=14 stress="-5.907247710564049e-06 1.1710148620249189e-06 1.1133442238445776e-05 1.1710148620249189e-06 1.269211922986175e-05 -3.7373777097280336e-06 1.1133442238445776e-05 -3.7373777097280336e-06 3.7414518619142906e-06" pbc="T T T"
Si       0.98259924       0.23631380       5.64764395
Si      -0.51324127       2.50307940       1.61138482
Si       0.63424055       3.28263801       3.47747443
Si       2.69113375       2.86018918       3.04736027
Si       5.64034745       2.42434791       6.19905781
Si       4.90930946      -1.05474088       6.18818834
Si       3.57301863       4.41798528      -0.71346189
Si      -0.23571542       3.30396617      -0.42043089
Si       2.86856825      -0.39168838       6.39110748
Si       5.41672492       0.44444938       2.55891655
Si       1.35261005      -1.87163699       6.24656779
Si       3.30539506      -2.33700897       5.53830329
12
Lattice="5.40533216166787 0.2106554995704499 0.7987335003940267 -1.119106341072957 7.263323099626168 -2.6633887088088977 0.909139958513968 -3.7268895729826466 8.060776826561202" Properties=species:S:1:pos:R:3 unique_starting_index=44 config_type=initial n_minim_iter=15 stress="1.230415699875602e-05 1.3064481909762955e-05 -2.080793089042322e-05 1.3064481909762955e-05 1.2818328825660174e-05 -2.1691698021586735e-05 -2.080793089042322e-05 -2.1691698021586735e-05 -7.361575785257964e-06" pbc="T T T"
Si       0.98229015       0.23632851       5.64816399
Si      -0.51309071       2.50324730       1.61161111
Si       0.63427817       3.28277623       3.47764142
Si       2.69132834       2.86029601       3.04680847
Si       5.64013646       2.42442141       6.19900224
Si       4.90910150      -1.05454223       6.18815241
Si       3.57320693       4.41792159      -0.71325574
Si      -0.23564671       3.30367263      -0.42042909
Si       2.86836193      -0.39186170       6.39145407
Si       5.41674025       0.44432401       2.55869897
Si       1.35229237      -1.87164543       6.24659338
Si       3.30504701      -2.33679336       5.53840877
12
Lattice="5.405256934099115 0.21057864880217633 0.7989358099125792 -1.119326343227506 7.262919670695525 -2.6630611925105794 0.9094465443536304 -3.726271140980246 8.060853655916528" Properties=species:S:1:pos:R:3 unique_starting_index=44 config_type=initial n_minim_iter=16 stress="-3.7717258981852452e-06 2.8896291294619755e-06 8.781948797906288e-06 2.8896291294619755e-06 8.379240880994758e-08 3.3062735708377927e-06 8.781948797906288e-06 3.3062735708377927e-06 1.838103021268806e-05" pbc="T T T"
Si       0.98245294       0.23665273       5.64853178
Si      -0.51307168       2.50331367       1.61184385
Si       0.63446606       3.28296675       3.47801209
Si       2.69128680       2.86035984       3.04693194
Si       5.64010407       2.42469491       6.19949697
Si       4.90915480      -1.05420849       6.18834397
Si       3.57304963       4.41757438      -0.71279249
Si      -0.23570655       3.30330238      -0.42013102
Si       2.86849916      -0.39146862       6.39182088
Si       5.41673521       0.44426330       2.55898437
Si       1.35238498      -1.87121355       6.24673553
Si       3.30521529      -2.33640159       5.53845539
