14
Lattice="6.558381369826858 1.9651104457642998 -1.3657991253551307 -0.8995956560313498 6.787102094041966 1.3657984213146175 -4.3544967474041 -3.3900424714051907 5.44657816548473" Properties=species:S:1:pos:R:3 unique_starting_index=10 config_type=initial n_minim_iter=1 energy=-2277.73719265284 free_energy=-2277.73719265284 pbc="T T T"
Si       2.38530495       5.04068809       3.06431927
Si      -0.73681394       0.85384521       2.38225815
Si       0.68257783       3.05005987       3.20330088
Si       3.80551685       7.23637236       2.24327619
Si      -1.39377010      -2.57903716       4.42264789
Si      -0.47553583       3.03273774       1.02392997
Si       0.30895702      -0.58840894       4.28366628
Si       0.64091909       5.40242314       1.16291123
Si       4.26028541       6.58920929      -0.00000053
Si      -2.72652708      -0.87212833       5.44657796
Si       0.18615054       6.04958621       3.40618794
Si      -2.84031944       1.36866881       3.40618832
Si       2.39408780       1.28604260       2.04038936
Si       2.95194380       4.56565081      -0.00000037
14
Lattice="6.552730610234479 1.9620924255827654 -1.363451417132681 -0.9000287045417759 6.780710536928972 1.3634507138490874 -4.349328616342205 -3.3867124056272275 5.44131686054485" Properties=species:S:1:pos:R:3 unique_starting_index=10 config_type=initial n_minim_iter=2 stress="-0.0011419049635092281 -8.390934140568513e-05 -0.00013044795978446827 -8.390934140568513e-05 -0.0012174320947199657 8.434178637474009e-05 -0.00013044795978446827 8.434178637474009e-05 -0.0010030676338874435" pbc="T T T"
Si       2.38289712       5.03525233       3.06167474
Si      -0.73561452       0.85274871       2.37964137
Si       0.68233023       3.04713203       3.20017796
Si       3.80203288       7.22886546       2.24113781
Si      -1.39099831      -2.57717249       4.41857431
Si      -0.47588866       3.02995111       1.02274224
Si       0.30956858      -0.58905219       4.28007110
Si       0.63916584       5.39663732       1.16124510
Si       4.25551053       6.58182418      -0.00000053
Si      -2.72334774      -0.87187425       5.44131666
Si       0.18568819       6.04367860       3.40238344
Si      -2.83748406       1.36786166       3.40238381
Si       2.39311537       1.28506784       2.03893256
Si       2.94811206       4.55972441      -0.00000037
14
Lattice="6.554852655995253 1.9490625043998655 -1.3279379761712649 -0.9127816372136043 6.777298099903226 1.3279372742103186 -4.316843845232526 -3.3960576898420234 5.416660764108429" Properties=species:S:1:pos:R:3 unique_starting_index=10 config_type=initial n_minim_iter=3 stress="0.0004694116872008138 -0.0008501274089300043 0.0025631838272774364 -0.0008501274089300043 -0.0002957920528645354 -0.0016572389300747125 0.0025631838272774364 -0.0016572389300747125 0.00011809927897946744" pbc="T T T"
Si       2.38707303       5.02297025       3.05634266
Si      -0.71604363       0.84217083       2.36031736
Si       0.70066258       3.04716233       3.18502645
Si       3.81639073       7.21980759       2.23163322
Si      -1.35335920      -2.59775507       4.40467897
Si      -0.48825135       3.03003953       1.01198149
Si       0.33305125      -0.62194715       4.27599518
Si       0.62138530       5.37876338       1.14066493
Si       4.24269039       6.56199579      -0.00000053
Si      -2.70090271      -0.89674759       5.41666056
Si       0.19508564       6.03657518       3.37229867
Si      -2.82023612       1.37290026       3.37229905
Si       2.42536195       1.29699223       2.04436123
Si       2.92519572       4.52428064      -0.00000036
14
Lattice="6.563706497155219 1.950940524889989 -1.3405957343058454 -0.9147027160407553 6.7861426995110525 1.340595031482356 -4.336721230175612 -3.3908083857052236 5.4121315857339445" Properties=species:S:1:pos:R:3 unique_starting_index=10 config_type=initial n_minim_iter=4 stress="0.0015524146164804164 -0.0013259617628020328 -0.0011246476672389458 -0.0013259617628020328 0.00035891100616395146 0.0007271462827679191 -0.0011246476672389458 0.0007271462827679191 -0.00239901094879916" pbc="T T T"
Si       2.37617666       5.04114361       3.05895202
Si      -0.71487674       0.84494213       2.35317882
Si       0.69795115       3.06899482       3.18128675
Si       3.82446802       7.24226710       2.23084374
Si      -1.36265242      -2.59907350       4.38894697
Si      -0.49858428       3.03699585       1.02318431
Si       0.31557309      -0.62692471       4.26661224
Si       0.61107474       5.37675409       1.14551869
Si       4.24268987       6.56199499      -0.00000053
Si      -2.72521041      -0.89835047       5.41213139
Si       0.19285288       6.05702620       3.37636296
Si      -2.82497185       1.38948005       3.37636333
Si       2.43558669       1.32489490       2.03576776
Si       2.91465878       4.50798359      -0.00000036
14
Lattice="6.548547367649296 1.968761346586781 -1.3443914242323434 -0.8922304717451884 6.779632773508879 1.3443907204989893 -4.33196445722434 -3.4019035118895924 5.430047885770372" Properties=species:S:1:pos:R:3 unique_starting_index=10 config_type=initial n_minim_iter=5 stress="-0.0010491977913026321 0.001011769004502302 -0.0002634638503515501 0.001011769004502302 -0.00013850017094830673 0.00017034387264458026 -0.0002634638503515501 0.00017034387264458026 0.000949969340167712" pbc="T T T"
Si       2.38188604       5.04791669       3.07176542
Si      -0.70628673       0.84183310       2.35828171
Si       0.70768461       3.07398600       3.19112651
Si       3.83709472       7.25340725       2.23892027
Si      -1.36332137      -2.60509568       4.40111017
Si      -0.49173151       3.03413007       1.02893741
Si       0.31088006      -0.63116499       4.28174908
Si       0.62120393       5.37095005       1.14829815
Si       4.24461669       6.56497513      -0.00000053
Si      -2.72184067      -0.91159086       5.43004769
Si       0.21368196       6.05938216       3.38721895
Si      -2.80814203       1.38565052       3.38721933
Si       2.43687745       1.33829856       2.04282807
Si       2.91365168       4.50642595      -0.00000036
14
Lattice="6.554210431534793 1.9499249533703966 -1.3262699601048358 -0.9117315952957186 6.777066405523045 1.3262692580931503 -4.314167175959783 -3.398235518642185 5.419821652204254" Properties=species:S:1:pos:R:3 unique_starting_index=10 config_type=initial n_minim_iter=6 stress="-0.00043750074845691587 -0.0020165367032088633 0.0006144267924531455 -0.0020165367032088633 -0.0022525940995486186 -0.0003972599472756496 0.0006144267924531455 -0.0003972599472756496 0.005055608919209962" pbc="T T T"
Si       2.38220206       5.04696537       3.08217507
Si      -0.68948666       0.84539885       2.33764584
Si       0.72132004       3.08150970       3.18096349
Si       3.84231880       7.25119444       2.23885706
Si      -1.34448848      -2.62411265       4.38442190
Si      -0.51284302       3.02576444       1.03539945
Si       0.31639354      -0.65865697       4.28563348
Si       0.59783036       5.34696021       1.13418752
Si       4.20904247       6.50995394      -0.00000052
Si      -2.72791335      -0.94484157       5.41982146
Si       0.23110669       6.08820071       3.37304510
Si      -2.78858350       1.41776935       3.37304548
Si       2.45599806       1.34214485       2.04677568
Si       2.89588270       4.47894340      -0.00000036
14
Lattice="6.589361548774932 2.0051389560455286 -1.2507667696701539 -0.875807912772096 6.831780890198142 1.2507660588156633 -4.302117940602633 -3.4839671429238153 5.302352387938243" Properties=species:S:1:pos:R:3 unique_starting_index=10 config_type=initial n_minim_iter=7 stress="0.00046343898737297883 0.0025241865194444986 0.0008993159025135454 0.0025241865194444986 0.0027354698249464912 -0.0005814573244994156 0.0008993159025135454 -0.0005814573244994156 0.0013768846619997572" pbc="T T T"
Si       2.44495347       5.12821244       3.05879644
Si      -0.62910136       0.85023461       2.24355519
Si       0.80207098       3.14865573       3.10253790
Si       3.95353303       7.37658541       2.19981336
Si      -1.31828438      -2.72390378       4.26934823
Si      -0.53147315       3.03290224       1.03300386
Si       0.32459811      -0.74434708       4.22560676
Si       0.59944609       5.34347128       1.07674498
Si       4.19627622       6.49020890      -0.00000052
Si      -2.74925711      -1.08222077       5.30235220
Si       0.35670290       6.22984779       3.27655886
Si      -2.71343535       1.48139048       3.27655924
Si       2.53708313       1.41579557       2.02579264
Si       2.89170391       4.47248023      -0.00000036
14
Lattice="6.604400305927587 2.0095692618114094 -1.2043346712817737 -0.8779398730192207 6.847312999593152 1.2043339588214776 -4.279292623803802 -3.512878651364208 5.244138787743538" Properties=species:S:1:pos:R:3 unique_starting_index=10 config_type=initial n_minim_iter=8 stress="-0.0011842035677887945 -6.14871721603518e-05 -0.0014791171060937794 -6.14871721603518e-05 -0.00123954817138567 0.0009563306108631083 -0.0014791171060937794 0.0009563306108631083 0.001583603278003285" pbc="T T T"
Si       2.46344445       5.15574667       3.05611340
Si      -0.58875625       0.84948526       2.18802462
Si       0.84827385       3.18613231       3.06172805
Si       4.00447833       7.42514943       2.18240961
Si      -1.28533790      -2.77761831       4.20792691
Si      -0.55824489       3.03195249       1.03621158
Si       0.32983270      -0.80800395       4.20231227
Si       0.57498096       5.31317058       1.04182588
Si       4.16179982       6.43688566      -0.00000052
Si      -2.75865907      -1.16097690       5.24413860
Si       0.41765947       6.30143435       3.22423600
Si      -2.66763469       1.52953599       3.22423638
Si       2.59813156       1.46869468       2.01990188
Si       2.85926761       4.42231233      -0.00000036
14
Lattice="6.633396094738836 2.0279010545027942 -1.1324791573575643 -0.8731230419728744 6.881277803820054 1.132478440690455 -4.249513095064513 -3.569211913533874 5.157482834762917" Properties=species:S:1:pos:R:3 unique_starting_index=10 config_type=initial n_minim_iter=9 stress="-0.0012106690667123218 -0.0011882282699948155 -0.0017604209032761366 -0.0011882282699948155 -0.002280198063585575 0.0011382088557890658 -0.0017604209032761366 0.0011382088557890658 -0.0013968009796553732" pbc="T T T"
Si       2.50519971       5.18860137       3.03806958
Si      -0.54615294       0.84471248       2.11941248
Si       0.91305879       3.22297922       3.00352203
Si       4.07508330       7.49531253       2.15395965
Si      -1.24256652      -2.84658456       4.13191455
Si      -0.57509687       3.03861519       1.02556798
Si       0.34957440      -0.88096241       4.16646210
Si       0.56393994       5.29719400       0.99102009
Si       4.14215846       6.40650717      -0.00000051
Si      -2.75257448      -1.25395815       5.15748265
Si       0.49686479       6.38599935       3.14498026
Si      -2.61818841       1.56807391       3.14498065
Si       2.67666066       1.52569901       2.01250165
Si       2.83548563       4.38552971      -0.00000035
14
Lattice="6.65700663998909 2.0242301630303023 -1.100369758241178 -0.8861604109092348 6.901301794879696 1.100369040258602 -4.234271566285276 -3.5906610190485466 5.137927330554819" Properties=species:S:1:pos:R:3 unique_starting_index=10 config_type=initial n_minim_iter=10 stress="0.0031959566335606642 -0.0026354072652406053 0.00011169951509399975 -0.0026354072652406053 0.0008238153524196356 -7.222021835073307e-05 0.00011169951509399975 -7.222021835073307e-05 -0.005255473644102402" pbc="T T T"
Si       2.52697198       5.15471755       3.02550558
Si      -0.57074561       0.82921153       2.11242098
Si       0.93231461       3.18970433       2.99213056
Si       4.06265184       7.49411983       2.14579562
Si      -1.22174134      -2.83444502       4.13120000
Si      -0.54675882       3.05749186       1.00672702
Si       0.37291603      -0.86943180       4.16457501
Si       0.59068996       5.31811552       0.97335167
Si       4.16787087       6.44627550      -0.00000052
Si      -2.70463143      -1.22482915       5.13792714
Si       0.48547093       6.36595985       3.11914781
Si      -2.64714456       1.52087152       3.11914820
Si       2.70144556       1.52142734       2.01877860
Si       2.83805665       4.38950621      -0.00000035
14
Lattice="6.690364039616026 2.0712511933101636 -1.0486314207234244 -0.8569717793816451 6.951018154187004 1.048630694959154 -4.222962270077214 -3.6665615183272937 5.099765709996165" Properties=species:S:1:pos:R:3 unique_starting_index=10 config_type=initial n_minim_iter=11 stress="0.001961584460218355 -0.0006260938278279769 -0.000710172580013184 -0.0006260938278279769 0.0013980348745759922 0.00045916498636002396 -0.000710172580013184 0.00045916498636002396 -0.00596467109891841" pbc="T T T"
Si       2.59662112       5.18155343       3.04013916
Si      -0.56354888       0.82783789       2.05962578
Si       1.01011315       3.20135670       2.96039245
Si       4.11520416       7.59068367       2.13937209
Si      -1.21083830      -2.87906808       4.08519315
Si      -0.51807007       3.06995777       1.01457225
Si       0.37566967      -0.89887136       4.16493986
Si       0.63656914       5.32938134       0.93482520
Si       4.16826691       6.44688804      -0.00000052
Si      -2.68888441      -1.29386599       5.09976552
Si       0.58350639       6.47317697       3.07419781
Si      -2.61569682       1.52510014       3.07419821
Si       2.76086384       1.56434535       2.02556696
Si       2.84788125       4.40470151      -0.00000035
14
Lattice="6.685353234172921 2.09307075906267 -1.0512548766061407 -0.8350179804477584 6.9554036238593895 1.0512541487338987 -4.216830009005165 -3.6891061632261253 5.145419250519907" Properties=species:S:1:pos:R:3 unique_starting_index=10 config_type=initial n_minim_iter=12 stress="-0.0029200232824969255 0.0013204255314171428 -0.0004002167733641603 0.0013204255314171428 -0.0017315025885154473 0.0002587620649344374 -0.0004002167733641603 0.0002587620649344374 -0.0014032948593149066" pbc="T T T"
Si       2.62171657       5.16771581       3.08728151
Si      -0.58033447       0.82249886       2.05813697
Si       1.03797808       3.17846244       2.98587102
Si       4.10596617       7.61035830       2.15954706
Si      -1.21653352      -2.86848388       4.10521939
Si      -0.48300571       3.07276848       1.04019955
Si       0.36720497      -0.87923051       4.20662987
Si       0.68102890       5.33338342       0.93878873
Si       4.16806732       6.44657934      -0.00000052
Si      -2.67077086      -1.29787967       5.14541906
Si       0.61892776       6.49716238       3.09833631
Si      -2.60939933       1.50404085       3.09833671
Si       2.75878197       1.55989561       2.04708200
Si       2.86323109       4.42844248      -0.00000036
14
Lattice="6.71791583617237 2.1138800681838847 -0.992932333568842 -0.829405727088528 6.993637802983542 0.9929316009470567 -4.1774583936365906 -3.7564248856003735 5.160505832852038" Properties=species:S:1:pos:R:3 unique_starting_index=10 config_type=initial n_minim_iter=13 stress="-0.0011799145697869847 -0.002117709254845362 3.942267624798825e-05 -0.002117709254845362 -0.003086073662435841 -2.54881862837857e-05 3.942267624798825e-05 -2.54881862837857e-05 0.004711148778768393" pbc="T T T"
Si       2.67352383       5.15580327       3.16764676
Si      -0.57308788       0.79753441       1.99285830
Si       1.12470791       3.16901356       2.99807266
Si       4.13930188       7.67729446       2.16243200
Si      -1.16437092      -2.90286215       4.07664528
Si      -0.45821665       3.09795153       1.08386024
Si       0.38444500      -0.91607244       4.24621938
Si       0.71790369       5.32570935       0.91428580
Si       4.15139447       6.42079213      -0.00000052
Si      -2.63993039      -1.37839317       5.16050564
Si       0.70581110       6.58221167       3.07671832
Si      -2.56883253       1.51745422       3.07671873
Si       2.82962471       1.59058162       2.08378656
Si       2.85698660       4.41878439      -0.00000036
14
Lattice="6.730512446292653 2.146583934886174 -0.9831135446893126 -0.8047526519133872 7.0185465018095154 0.9831128074330889 -4.137291741034317 -3.823243082030434 5.339422102149191" Properties=species:S:1:pos:R:3 unique_starting_index=10 config_type=initial n_minim_iter=14 stress="0.012314718733197873 -0.00840286165932416 0.0010946979065900738 -0.00840286165932416 0.004751267107297999 -0.0007077807697821824 0.0010946979065900738 -0.0007077807697821824 0.017990598104646326" pbc="T T T"
Si       2.70440224       5.07752264       3.42062374
Si      -0.61697827       0.72674762       1.91879759
Si       1.21081164       3.09161987       3.14173750
Si       4.11080528       7.71484442       2.19768342
Si      -1.10076378      -2.86524746       4.09695209
Si      -0.37260398       3.16218671       1.24246968
Si       0.39282682      -0.87934468       4.37583833
Si       0.82537227       5.33922034       0.96358311
Si       4.16206671       6.43729844      -0.00000052
Si      -2.59118326      -1.43194029       5.33942191
Si       0.77411084       6.61676632       3.16126705
Si      -2.53569073       1.49763154       3.16126746
Si       2.84994833       1.56415477       2.17815409
Si       2.89098188       4.47136349      -0.00000036
14
Lattice="6.658487997299107 2.2175797105313593 -1.000178804260699 -0.7104522023416371 6.982004105645022 1.0001780642329956 -4.085889590960331 -3.880905396720595 5.517924063371336" Properties=species:S:1:pos:R:3 unique_starting_index=10 config_type=initial n_minim_iter=15 stress="0.01496675430591633 -0.009650087899336426 0.0020633712915166676 -0.009650087899336426 0.006280668878522606 -0.0013340804631294474 0.0020633712915166676 -0.0013340804631294474 0.02877291385821175" pbc="T T T"
Si       2.70803714       4.99795472       3.67923632
Si      -0.63962619       0.63974494       1.83868698
Si       1.26803168       3.02393473       3.29884634
Si       4.09927775       7.71603638       2.21907655
Si      -1.04660068      -2.81083509       4.09755982
Si      -0.27153575       3.21070037       1.42036390
Si       0.39340478      -0.83681509       4.47794980
Si       0.93759610       5.33399276       1.03997359
Si       4.18998451       6.48047776      -0.00000052
Si      -2.53999128      -1.48992767       5.51792387
Si       0.84688934       6.56955138       3.25905066
Si      -2.45706026       1.45946759       3.25905107
Si       2.83115408       1.55770105       2.25887244
Si       2.91617197       4.51032398      -0.00000036
14
Lattice="6.559251309837098 2.2818695506693247 -1.033534546008348 -0.611098902060937 6.917894625786748 1.0335338059661363 -4.073286241515246 -3.889182030225009 5.5427353134890245" Properties=species:S:1:pos:R:3 unique_starting_index=10 config_type=initial n_minim_iter=16 stress="-0.00468478189250806 0.002372939969801143 -0.010010161437955571 0.002372939969801143 -0.0025488867912971482 0.006472119773309185 -0.010010161437955571 0.006472119773309185 0.012196513852041683" pbc="T T T"
Si       2.67147255       4.96799736       3.75462829
Si      -0.63933482       0.58583029       1.78810626
Si       1.24532398       3.00068561       3.35492234
Si       4.10011608       7.67769132       2.18781180
Si      -1.04066195      -2.76101249       4.04270685
Si      -0.21581965       3.22846706       1.50002811
Si       0.38548662      -0.79370073       4.44241281
Si       0.99288186       5.33637021       1.10032183
Si       4.23139333       6.54452310      -0.00000053
Si      -2.52985794      -1.50202457       5.54273512
Si       0.86160461       6.46953843       3.28813416
Si      -2.39858277       1.42713989       3.28813457
Si       2.76185216       1.54551732       2.25460020
Si       2.94224468       4.55064958      -0.00000037
14
Lattice="6.552978053401363 2.307480890054398 -0.9721351524864029 -0.5851692601580593 6.922685014276505 0.9721344099986338 -4.029382693365981 -3.939123418364365 5.480417164145306" Properties=species:S:1:pos:R:3 unique_starting_index=10 config_type=initial n_minim_iter=17 stress="-0.006425625055919948 0.004083825675506074 -0.0034739519213554775 0.004083825675506074 -0.002749755624895053 0.002246100933270954 -0.0034739519213554775 0.002246100933270954 0.004508103630692684" pbc="T T T"
Si       2.70748692       4.95123037       3.75589815
Si      -0.62550160       0.56184930       1.72451826
Si       1.29030790       2.99333483       3.33135969
Si       4.13851122       7.69615587       2.14905629
Si      -0.99921534      -2.78355061       3.97865947
Si      -0.18982217       3.23747298       1.50175734
Si       0.41796368      -0.82565507       4.40319792
Si       1.01397379       5.33333232       1.07721856
Si       4.23666618       6.55267840      -0.00000053
Si      -2.49241763      -1.56196239       5.48041697
Si       0.91581883       6.47680979       3.22627539
Si      -2.35228884       1.42216125       3.22627579
Si       2.79686181       1.55839968       2.25414082
Si       2.94079247       4.54840350      -0.00000037
14
Lattice="6.573418234329422 2.282071157143251 -0.9112505038172489 -0.616729230689666 6.9308962231702225 0.9112497627129544 -3.999230614770297 -3.946424361316761 5.373999831991352" Properties=species:S:1:pos:R:3 unique_starting_index=10 config_type=initial n_minim_iter=18 stress="-0.002508087290591274 0.0008361414250175221 0.0018722426639761068 0.0008361414250175221 -0.0017554731765084168 -0.0012105078203655372 0.0018722426639761068 -0.0012105078203655372 -0.0036085791605311415" pbc="T T T"
Si       2.71437334       4.94633517       3.69665819
Si      -0.60263969       0.55881910       1.67734088
Si       1.29668173       3.01091519       3.28109111
Si       4.17095927       7.68468379       2.09290754
Si      -0.95899339      -2.81521058       3.90871575
Si      -0.21616798       3.23665869       1.46528373
Si       0.45869822      -0.87979061       4.32428283
Si       0.96692206       5.32376138       1.04971633
Si       4.21551706       6.51996791      -0.00000052
Si      -2.48799083      -1.60905156       5.37399964
Si       0.92236428       6.48847725       3.14262440
Si      -2.33004746       1.45810498       3.14262480
Si       2.83413549       1.56056953       2.23137447
Si       2.92047507       4.51697941      -0.00000036
14
Lattice="6.591248642592594 2.2860587154560963 -0.9010173410058446 -0.6204106366782198 6.948792348282915 0.9010165981411941 -4.003946440532398 -3.9588912172778374 5.359354774286759" Properties=species:S:1:pos:R:3 unique_starting_index=10 config_type=initial n_minim_iter=19 stress="0.001690126985190978 -0.0019477943184471025 0.0019712355798947217 -0.0019477943184471025 -6.309129307928012e-05 -0.001274511994174676 0.0019712355798947217 -0.001274511994174676 -0.0014922081278358665" pbc="T T T"
Si       2.72233162       4.96170456       3.69992425
Si      -0.59660622       0.55991709       1.65942977
Si       1.30360048       3.03829821       3.28012858
Si       4.20252364       7.71164795       2.07922502
Si      -0.95449845      -2.83087372       3.88859869
Si      -0.22286281       3.24374625       1.47075573
Si       0.46423269      -0.90746737       4.30839436
Si       0.94884533       5.32686645       1.05095974
Si       4.20775236       6.50795857      -0.00000052
Si      -2.50388220      -1.63880317       5.35935459
Si       0.94361661       6.53055583       3.13018528
Si      -2.31953328       1.48357529       3.13018569
Si       2.86336019       1.59138863       2.22916852
Si       2.90841942       4.49833343      -0.00000036
14
Lattice="6.629835247462707 2.315964802883647 -0.9181013798777921 -0.6089752679263564 6.996253202623947 0.9181006307896322 -4.052720238329462 -3.982210726987354 5.356978968184811" Properties=species:S:1:pos:R:3 unique_starting_index=10 config_type=initial n_minim_iter=20 stress="0.010809327158485966 -0.0039093408192501684 -0.0023159996856772064 -0.0039093408192501684 0.007290513308408347 0.0014974205968190152 -0.0023159996856772064 0.0014974205968190152 0.001056272037413643" pbc="T T T"
Si       2.74259891       5.01529097       3.68467824
Si      -0.60483215       0.57707149       1.67229996
Si       1.28460550       3.10679045       3.30284567
Si       4.27402576       7.77648330       2.05413210
Si      -0.99111666      -2.84646114       3.89173896
Si      -0.22080061       3.25800426       1.46523966
Si       0.46687675      -0.93796063       4.27357153
Si       0.92120146       5.37081046       1.08340676
Si       4.21123288       6.51334175      -0.00000052
Si      -2.54543989      -1.65096183       5.35697878
Si       0.98399434       6.63395200       3.13753939
Si      -2.33291310       1.50382685       3.13753980
Si       2.91113536       1.67645188       2.21943859
Si       2.89306714       4.47458868      -0.00000036
14
Lattice="6.574783042990462 2.3802116546280567 -0.943298804208373 -0.5277946670353417 6.972418073525951 0.9432980518694333 -4.036435500270163 -4.021392277681751 5.4632318551554535" Properties=species:S:1:pos:R:3 unique_starting_index=10 config_type=initial n_minim_iter=21 stress="0.003449435923827163 -0.002393827933530621 0.001375563617513547 -0.002393827933530621 0.0012947410011975727 -0.0008893772387313117 0.001375563617513547 -0.0008893772387313117 0.0013459975550255238" pbc="T T T"
Si       2.77563865       4.97165607       3.78755412
Si      -0.64189789       0.55011105       1.67567697
Si       1.28449073       3.07730381       3.42224683
Si       4.28959702       7.76550735       2.04098383
Si      -1.00765910      -2.79916636       3.93564370
Si      -0.12847009       3.26355929       1.52758780
Si       0.48348883      -0.90481410       4.30095098
Si       0.98702337       5.40079272       1.16228019
Si       4.21061156       6.51238079      -0.00000052
Si      -2.49833048      -1.64246811       5.46323166
Si       1.06600882       6.65391928       3.20326454
Si      -2.30847301       1.43474618       3.20326496
Si       2.90615291       1.71125840       2.25996632
Si       2.89826215       4.48262359      -0.00000036
