8
Lattice="5.740279999999999 -6.920958916789188e-16 -3.1185507707858696e-16 1.7292080974298842 5.47363259948847 3.0780218489451213e-17 1.729208097429884 1.2671617773443404 5.324937076080848" Properties=species:S:1:pos:R:3 unique_starting_index=42 config_type=initial n_minim_iter=1 pbc="T T T"
Si       6.19510363       5.59030929       1.50534746
Si       7.19684798       2.44215922       3.76007652
Si       4.49670227       5.07631724       5.08995186
Si       6.70398863       5.93012566       3.11427773
Si       7.67417627       4.09601938       3.76008292
Si       6.21752823       5.06635607       5.04806484
Si       6.02937465       4.41831906       3.49028166
Si       1.49843357       1.09805046       0.86741255
8
Lattice="5.778186184434048 0.009981467176621545 0.007884928937329854 1.7501448052550623 5.506771138544821 0.007884928937329875 1.7501448052550619 1.2825041736348293 5.3553499968745095" Properties=species:S:1:pos:R:3 unique_starting_index=42 config_type=initial n_minim_iter=2 pbc="T T T"
Si       6.24728905       5.63298623       1.52569506
Si       7.25326288       2.47049773       3.79126869
Si       4.54071889       5.11713931       5.12675892
Si       6.76398048       5.97941652       3.14623095
Si       7.73924947       4.13691025       3.79389168
Si       6.27612236       5.11075959       5.08861941
Si       6.07905422       4.45472420       3.51904015
Si       1.51153783       1.10765325       0.87499833
8
Lattice="6.459597644687978 0.20322542898762447 0.16053933128977974 2.1396813198110824 6.098316665760904 0.1605393312897788 2.1396813198110816 1.5679560997847077 5.895485790156403" Properties=species:S:1:pos:R:3 unique_starting_index=42 config_type=initial n_minim_iter=3 pbc="T T T"
Si       7.19999978       6.40751733       1.90592727
Si       8.27881108       2.99669631       4.36003811
Si       5.35141173       5.86015040       5.79222442
Si       7.86629892       6.87967095       3.73748572
Si       8.92974889       4.89265686       4.41574730
Si       7.35539035       5.92581932       5.82754054
Si       6.98334643       5.11738853       4.04251642
Si       1.75159537       1.28356715       1.01396273
8
Lattice="6.627589444402987 0.33035594439472454 0.2609669600154327 2.311512400157527 6.220207980242848 0.2609669600154314 2.311512400157526 1.6938737250250828 5.990816544959974" Properties=species:S:1:pos:R:3 unique_starting_index=42 config_type=initial n_minim_iter=4 pbc="T T T"
Si       7.52539877       6.64583476       2.08990878
Si       8.60408173       3.23089154       4.54945958
Si       5.67271301       6.09989695       5.98147552
Si       8.26025954       7.17192994       3.97141459
Si       9.32710899       5.18681571       4.64139863
Si       7.75558613       6.21254345       6.05770487
Si       7.29448728       5.34539220       4.22262949
Si       1.83627561       1.34562073       1.06298239
8
Lattice="6.656499356068573 0.43453264887735626 0.3432620672612533 2.419558742689864 6.216392667050138 0.34326206726125275 2.4195587426898624 1.7730499650868323 5.968053322405957" Properties=species:S:1:pos:R:3 unique_starting_index=42 config_type=initial n_minim_iter=5 pbc="T T T"
Si       7.67395166       6.73452395       2.21325599
Si       8.73340136       3.37749582       4.63271752
Si       5.85146362       6.19921640       6.03920016
Si       8.45642605       7.29795685       4.10455781
Si       9.50637511       5.35085669       4.75561516
Si       7.96600939       6.35179011       6.14948512
Si       7.43670596       5.44960989       4.30495698
Si       1.87708826       1.37552820       1.08660800
8
Lattice="6.593670634294115 0.4679457046616714 0.369656941459248 2.4324931042446996 6.146417079393964 0.3696569414592482 2.432493104244699 1.7825282508992797 5.893868186766719" Properties=species:S:1:pos:R:3 unique_starting_index=42 config_type=initial n_minim_iter=6 pbc="T T T"
Si       7.64396217       6.69321152       2.23550207
Si       8.68497391       3.39539847       4.61185484
Si       5.85394631       6.16698166       5.99385998
Si       8.43419709       7.26330802       4.10707557
Si       9.46663951       5.35081537       4.74456583
Si       7.95400000       6.33227223       6.11519469
Si       7.40730017       5.42806136       4.28793456
Si       1.87152722       1.37145308       1.08338883
8
Lattice="6.59700331908032 0.4942403569057447 0.390428583614412 2.458570259232584 6.141673925141912 0.3904285836144131 2.4585702592325838 1.801637561173529 5.884445188787126" Properties=species:S:1:pos:R:3 unique_starting_index=42 config_type=initial n_minim_iter=7 pbc="T T T"
Si       7.67703098       6.71179544       2.26592310
Si       8.71265625       3.43099698       4.63004222
Si       5.89623026       6.18830324       6.00489650
Si       8.47894862       7.29132971       4.13801035
Si       9.50684053       5.38883447       4.77070586
Si       8.00236323       6.36392511       6.13529365
Si       7.43909931       5.45136373       4.30634243
Si       1.88092482       1.37833962       1.08882891
8
Lattice="6.583366569299707 0.5158828083505901 0.4075251876158659 2.475099426732791 6.122151034196368 0.40752518761586703 2.475099426732791 1.8137501167986823 5.861494739216764" Properties=species:S:1:pos:R:3 unique_starting_index=42 config_type=initial n_minim_iter=8 pbc="T T T"
Si       7.68640426       6.71110789       2.28670512
Si       8.71482426       3.45333154       4.63412767
Si       5.91818042       6.19119872       5.99941653
Si       8.49638473       7.29715417       4.15464916
Si       9.51764691       5.40846410       4.78132153
Si       8.02433635       6.37526895       6.13710795
Si       7.44897170       5.45859821       4.31205736
Si       1.88449274       1.38095420       1.09089431
8
Lattice="6.576489651607079 0.5220503845824185 0.4123973070591303 2.4789088967521824 6.113735635709194 0.41239730705913175 2.478908896752183 1.8165416922069209 5.852180041889019" Properties=species:S:1:pos:R:3 unique_starting_index=42 config_type=initial n_minim_iter=9 pbc="T T T"
Si       7.68583118       6.70799525       2.29187263
Si       8.71168357       3.45844923       4.63331195
Si       5.92211429       6.18935496       5.99519215
Si       8.49781383       7.29565158       4.15777989
Si       9.51664462       5.41193004       4.78236279
Si       8.02733936       6.37581897       6.13492141
Si       7.44876239       5.45844483       4.31193620
Si       1.88476374       1.38115278       1.09105118
8
Lattice="6.567111640011663 0.53326065797121 0.4212529399510252 2.486773388428805 6.101416256601321 0.4212529399510263 2.4867733884288055 1.822304782991467 5.838145223752377" Properties=species:S:1:pos:R:3 unique_starting_index=42 config_type=initial n_minim_iter=10 pbc="T T T"
Si       7.68817347       6.70536637       2.30205826
Si       8.70988241       3.46905856       4.63389717
Si       5.93168820       6.18878679       5.99027669
Si       8.50409507       7.29615125       4.16519304
Si       9.51901325       5.42049353       4.78632696
Si       8.03621860       6.37960111       6.13369134
Si       7.45158537       5.46051350       4.31357036
Si       1.88606437       1.38210589       1.09180409
8
Lattice="6.397214319307155 0.7616139471384934 0.6016421979457488 2.6533391631109784 5.870621614201169 0.60164219794575 2.6533391631109784 1.9443639980765148 5.571859663923603" Properties=species:S:1:pos:R:3 unique_starting_index=42 config_type=initial n_minim_iter=11 pbc="T T T"
Si       7.75834929       6.67165401       2.51507922
Si       8.69887589       3.69413492       4.65956005
Si       6.14299371       6.19562643       5.90816519
Si       8.65797904       7.32768016       4.32840775
Si       9.59543375       5.61104537       4.88205205
Si       8.24093992       6.47630678       6.12657907
Si       7.53010105       5.51804970       4.35902148
Si       1.91855061       1.40591176       1.11060971
8
Lattice="6.22094131811761 0.7722227173977507 0.6100226692859362 2.6103544671930665 5.69934104650119 0.6100226692859375 2.610354467193066 1.9128648605470855 5.403291963855017" Properties=species:S:1:pos:R:3 unique_starting_index=42 config_type=initial n_minim_iter=12 pbc="T T T"
Si       7.57705263       6.49822648       2.48687722
Si       8.47889041       3.63877250       4.54873437
Si       6.02393432       6.04311069       5.74597779
Si       8.46231251       7.16960805       4.22989294
Si       9.38576161       5.48303724       4.76967384
Si       8.05571616       6.32962352       5.99560758
Si       7.36676140       5.39835459       4.26446750
Si       1.88104990       1.37843128       1.08890131
8
Lattice="6.364264636240133 0.7886362988529212 0.6229886913236794 2.669180475118701 5.831062267135406 0.6229886913236811 2.6691804751187016 1.9559724939591143 5.528433202599348" Properties=species:S:1:pos:R:3 unique_starting_index=42 config_type=initial n_minim_iter=13 pbc="T T T"
Si       7.74792851       6.64568630       2.53792352
Si       8.67097526       3.71586920       4.65221480
Si       6.15531358       6.18080597       5.87761438
Si       8.65839235       7.34192269       4.32548993
Si       9.60913920       5.60730481       4.87893706
Si       8.24150175       6.47656273       6.14111017
Si       7.52828264       5.51671718       4.35796884
Si       1.92535210       1.41089589       1.11454695
8
Lattice="6.334080120899099 0.7853843084170773 0.620419759017659 2.656986730352318 5.803259515531652 0.6204197590176616 2.656986730352319 1.9470369313084317 5.501980449811617" Properties=species:S:1:pos:R:3 unique_starting_index=42 config_type=initial n_minim_iter=14 pbc="T T T"
Si       7.71074488       6.61279284       2.52629572
Si       8.62840854       3.69864295       4.63005317
Si       6.12606468       6.15105114       5.84830637
Si       8.61719268       7.30934783       4.30417116
Si       9.56566646       5.57974209       4.85520009
Si       8.20212361       6.44579620       6.11435559
Si       7.49648887       5.49341874       4.33956408
Si       1.91722487       1.40494027       1.10984227
8
Lattice="6.340917977037969 0.7914057999722633 0.6251764778616163 2.6647883547815123 5.8079658191120505 0.6251764778616177 2.664788354781512 1.9527539530437357 5.505457708793834" Properties=species:S:1:pos:R:3 unique_starting_index=42 config_type=initial n_minim_iter=15 pbc="T T T"
Si       7.72404806       6.62170889       2.53419046
Si       8.64091788       3.70863811       4.63795321
Si       6.13936386       6.16080095       5.85515256
Si       8.63450296       7.32397742       4.31376217
Si       9.58483105       5.59187355       4.86475021
Si       8.21946469       6.45847143       6.12636741
Si       7.51143413       5.50437061       4.34821558
Si       1.92160303       1.40814858       1.11237669
8
Lattice="6.339223895500408 0.7935197068733748 0.6268463732187276 2.6662937395735 5.805713635444912 0.6268463732187285 2.6662937395735002 1.9538570973509115 5.502880121858002" Properties=species:S:1:pos:R:3 unique_starting_index=42 config_type=initial n_minim_iter=16 pbc="T T T"
Si       7.72359662       6.61986642       2.53531985
Si       8.63902501       3.70976565       4.63781293
Si       6.13986882       6.16016800       5.85309868
Si       8.63564957       7.32640861       4.31429781
Si       9.58749472       5.59247820       4.86497738
Si       8.22084366       6.45923826       6.12860856
Si       7.51366487       5.50600529       4.34950691
Si       1.92260852       1.40888540       1.11295875
8
Lattice="6.329835711892825 0.7950686019649003 0.6280699335943676 2.664942578924851 5.796294960784654 0.6280699335943678 2.6649425789248515 1.952866968325051 5.4934340551177785" Properties=species:S:1:pos:R:3 unique_starting_index=42 config_type=initial n_minim_iter=17 pbc="T T T"
Si       7.71153357       6.60653752       2.53126289
Si       8.62268137       3.70408553       4.63146804
Si       6.12952917       6.15078375       5.84107107
Si       8.62666774       7.32673285       4.30777600
Si       9.58509819       5.58412821       4.85806023
Si       8.21215962       6.45256231       6.13043380
Si       7.51105002       5.50408914       4.34799323
Si       1.92355502       1.40957899       1.11350666
8
Lattice="6.32167217713961 0.7821865905001316 0.6178936996627991 2.650199770507934 5.7923912293610655 0.6178936996628001 2.6501997705079354 1.9420634546563407 5.491992199206978" Properties=species:S:1:pos:R:3 unique_starting_index=42 config_type=initial n_minim_iter=18 pbc="T T T"
Si       7.68226070       6.58326888       2.50720659
Si       8.59167541       3.67584348       4.61670139
Si       6.09325876       6.13154326       5.82400364
Si       8.59731899       7.32247063       4.28437311
Si       9.57219291       5.55517962       4.83750196
Si       8.18066814       6.43173250       6.13170520
Si       7.49408784       5.49165927       4.33817417
Si       1.92248977       1.40879838       1.11289001
8
Lattice="6.289713496512289 0.7796125522549513 0.6158603203723518 2.6381180342555055 5.76269249892602 0.6158603203723529 2.6381180342555073 1.933209971720546 5.463570991268223" Properties=species:S:1:pos:R:3 unique_starting_index=42 config_type=initial n_minim_iter=19 pbc="T T T"
Si       7.64377696       6.54856474       2.49516776
Si       8.54699047       3.65805665       4.59395951
Si       6.06283723       6.10079544       5.79302929
Si       8.55517664       7.28997472       4.26238378
Si       9.52851149       5.52675096       4.81302261
Si       8.14040141       6.40025809       6.10518266
Si       7.46075524       5.46723318       4.31887861
Si       1.91477838       1.40314748       1.10842604
8
Lattice="6.307939937233457 0.7843822984228919 0.6196282143019537 2.6481567687769036 5.778635441850013 0.6196282143019547 2.6481567687769063 1.9405663452520665 5.478208553299079" Properties=species:S:1:pos:R:3 unique_starting_index=42 config_type=initial n_minim_iter=20 pbc="T T T"
Si       7.66817451       6.56832412       2.50411949
Si       8.57318153       3.67077296       4.60872876
Si       6.08285265       6.12005832       5.81017954
Si       8.58430167       7.31526455       4.27721466
Si       9.56140022       5.54584460       4.82919551
Si       8.16851556       6.42192023       6.12635209
Si       7.48470222       5.48478149       4.33274102
Si       1.92169678       1.40821728       1.11243096
8
Lattice="6.30486188879873 0.7831543760720521 0.6186582085597513 2.6460586512483495 5.7760702755196185 0.6186582085597518 2.646058651248352 1.9390288470524508 5.47593763085904" Properties=species:S:1:pos:R:3 unique_starting_index=42 config_type=initial n_minim_iter=21 pbc="T T T"
Si       7.66303356       6.56397223       2.50127900
Si       8.56748313       3.66717827       4.60589273
Si       6.07770835       6.11629210       5.80660345
Si       8.57876352       7.31222950       4.27375553
Si       9.55683784       5.54146857       4.82574832
Si       8.16296842       6.41786473       6.12420028
Si       7.48063744       5.48180283       4.33038801
Si       1.92100669       1.40771157       1.11203148
8
Lattice="6.301585958024343 0.7817315980179269 0.6175342752088875 2.6437151191627053 5.773375117417868 0.6175342752088867 2.6437151191627075 1.9373115093373878 5.473575882662674" Properties=species:S:1:pos:R:3 unique_starting_index=42 config_type=initial n_minim_iter=22 pbc="T T T"
Si       7.65708054       6.55876610       2.49756109
Si       8.56072554       3.66261030       4.60275685
Si       6.07131691       6.11206823       5.80239946
Si       8.57271090       7.30995282       4.26962081
Si       9.55284361       5.53626883       4.82175804
Si       8.15680700       6.41346375       6.12294265
Si       7.47647499       5.47875259       4.32797845
Si       1.92064832       1.40744897       1.11182403
8
Lattice="6.208649739696495 0.7460048164593052 0.5893116573547679 2.581651711543024 5.695518344865621 0.5893116573547675 2.5816517115430266 1.8918315130175163 5.40436776806954" Properties=species:S:1:pos:R:3 unique_starting_index=42 config_type=initial n_minim_iter=23 pbc="T T T"
Si       7.49353137       6.41322522       2.39619777
Si       8.37267759       3.53804701       4.51715919
Si       5.89589207       5.99597130       5.68427821
Si       8.40805637       7.25099343       4.15670055
Si       9.44702230       5.39418051       4.71243710
Si       7.98944123       6.29366161       6.09172631
Si       7.36342324       5.39590839       4.26253510
Si       1.91280782       1.40170345       1.10728532
8
Lattice="6.0615571618660775 0.7811641799646483 0.6170860393985903 2.570867527078837 5.544667064922956 0.6170860393985903 2.5708675270788404 1.8839288745940903 5.251184631712417" Properties=species:S:1:pos:R:3 unique_starting_index=42 config_type=initial n_minim_iter=24 pbc="T T T"
Si       7.37553764       6.28998089       2.39552198
Si       8.21961364       3.51993740       4.44397714
Si       5.83251454       5.89225149       5.56453835
Si       8.28572104       7.11392241       4.11862252
Si       9.27946608       5.33969057       4.64793832
Si       7.88700764       6.19772714       5.96719411
Si       7.27119931       5.32832680       4.20914855
Si       1.88814497       1.38363055       1.09300851
8
Lattice="6.228305366829941 0.8105253211207353 0.640280075649784 2.6490961928661436 5.694824703149576 0.640280075649782 2.6490961928661463 1.9412547541835126 5.391893633431272" Properties=species:S:1:pos:R:3 unique_starting_index=42 config_type=initial n_minim_iter=25 pbc="T T T"
Si       7.58602253       6.46682218       2.46658139
Si       8.45164701       3.62319819       4.57095706
Si       6.00087664       6.05980185       5.72012516
Si       8.52892554       7.32157783       4.24098124
Si       9.55073867       5.49793098       4.78436415
Si       8.11961592       6.37929464       6.14088200
Si       7.47470617       5.47745640       4.32695451
Si       1.94335621       1.42408928       1.12496916
8
Lattice="6.2423450012230814 0.80391195051594 0.6350557978625291 2.647019340960429 5.710204387503007 0.6350557978625282 2.647019340960432 1.9397328394087454 5.408064952011645" Properties=species:S:1:pos:R:3 unique_starting_index=42 config_type=initial n_minim_iter=26 pbc="T T T"
Si       7.59348759       6.47655486       2.46007143
Si       8.46317637       3.61783424       4.57653682
Si       5.99923497       6.06814920       5.73110052
Si       8.53563969       7.33148683       4.24152342
Si       9.56220995       5.49924954       4.78756307
Si       8.12432885       6.38484698       6.15039630
Si       7.48151721       5.48244752       4.33089729
Si       1.94574376       1.42583887       1.12635126
8
Lattice="6.23107202975389 0.7996354576177772 0.6316775527602495 2.6395456176428413 5.700743323238062 0.6316775527602463 2.6395456176428445 1.9342561032446193 5.399642978490847" Properties=species:S:1:pos:R:3 unique_starting_index=42 config_type=initial n_minim_iter=27 pbc="T T T"
Si       7.57660803       6.46314054       2.45150693
Si       8.44530035       3.60671175       4.56679247
Si       5.98324415       6.05549911       5.72003332
Si       8.51567926       7.31538506       4.23087501
Si       9.54084324       5.48560707       4.77623078
Si       8.10488357       6.37005726       6.13719708
Si       7.46589911       5.47100259       4.32185629
Si       1.94172536       1.42289419       1.12402510
8
Lattice="6.234088048715689 0.8001808949165865 0.6321084247217329 2.6409742670798866 5.7034549340159755 0.6321084247217309 2.64097426707989 1.9353030159687377 5.402181178129601" Properties=species:S:1:pos:R:3 unique_starting_index=42 config_type=initial n_minim_iter=28 pbc="T T T"
Si       7.58049715       6.46636448       2.45221191
Si       8.44954609       3.60803127       4.56929218
Si       5.98578137       6.05877614       5.72300647
Si       8.52017618       7.31916324       4.23313976
Si       9.54580058       5.48853950       4.77877080
Si       8.10917314       6.37341810       6.14034833
Si       7.46956934       5.47369214       4.32398091
Si       1.94301773       1.42384124       1.12477322
8
Lattice="6.233651226765239 0.800294395331088 0.6321980851581068 2.6409509064624634 5.703004212325748 0.6321980851581043 2.6409509064624666 1.9352858973341807 5.40172194399733" Properties=species:S:1:pos:R:3 unique_starting_index=42 config_type=initial n_minim_iter=29 pbc="T T T"
Si       7.58020803       6.46598722       2.45166759
Si       8.44909927       3.60746421       4.56926055
Si       5.98510605       6.05868628       5.72276547
Si       8.51987949       7.31876970       4.23305426
Si       9.54533594       5.48841828       4.77863070
Si       8.10891758       6.37318770       6.13998527
Si       7.46936777       5.47354443       4.32386423
Si       1.94322876       1.42399588       1.12489538
8
Lattice="6.233248688442627 0.8012760463241942 0.6329735471402925 2.6417656967427634 5.702324659110342 0.6329735471402906 2.641765696742767 1.9358829747485662 5.400881329686477" Properties=species:S:1:pos:R:3 unique_starting_index=42 config_type=initial n_minim_iter=30 pbc="T T T"
Si       7.58104216       6.46610283       2.45115744
Si       8.44946078       3.60714400       4.57011855
Si       5.98490961       6.05962310       5.72299604
Si       8.52104604       7.31915289       4.23395305
Si       9.54605274       5.48952344       4.77939248
Si       8.11018733       6.37400993       6.14014998
Si       7.47032253       5.47424408       4.32441692
Si       1.94425940       1.42475113       1.12549200
8
Lattice="6.232291188320205 0.8057371817339245 0.6364976518698967 2.645731165194554 5.700067759558692 0.6364976518698957 2.6457311651945576 1.9387888656351768 5.397869900144452" Properties=species:S:1:pos:R:3 unique_starting_index=42 config_type=initial n_minim_iter=31 pbc="T T T"
Si       7.58554757       6.46753706       2.45221142
Si       8.45218560       3.60906389       4.57363365
Si       5.98756115       6.06351032       5.72414731
Si       8.52710552       7.32198714       4.23823967
Si       9.55058070       5.49483359       4.78319055
Si       8.11661482       6.37833406       6.14191487
Si       7.47489421       5.47759420       4.32706337
Si       1.94767236       1.42725215       1.12746770
8
Lattice="6.2295165602876645 0.8106172318960484 0.6403526812015636 2.649548695418395 5.695951946966523 0.6403526812015639 2.6495486954184 1.9415863475523032 5.392973446390435" Properties=species:S:1:pos:R:3 unique_starting_index=42 config_type=initial n_minim_iter=32 pbc="T T T"
Si       7.58938281       6.46685799       2.44805876
Si       8.45269340       3.60591802       4.57835175
Si       5.98471438       6.06843174       5.72444803
Si       8.53198636       7.32408519       4.24105146
Si       9.55405161       5.49850011       4.78645245
Si       8.12115661       6.38201784       6.14330500
Si       7.47836449       5.48013721       4.32907224
Si       1.95412430       1.43198012       1.13120259
8
Lattice="6.2186726877408525 0.8153485476051554 0.6440902167247741 2.6507936123368037 5.684186527211282 0.6440902167247733 2.6507936123368077 1.942498621290392 5.3806623932092075" Properties=species:S:1:pos:R:3 unique_starting_index=42 config_type=initial n_minim_iter=33 pbc="T T T"
Si       7.58368029       6.45866670       2.44950177
Si       8.44316479       3.60663425       4.57512831
Si       5.98252693       6.06314248       5.71614521
Si       8.52636004       7.31666976       4.23951674
Si       9.54528576       5.49628222       4.78376167
Si       8.11640110       6.37761978       6.13644630
Si       7.47300746       5.47621159       4.32597117
Si       1.95426044       1.43207989       1.13128140
8
Lattice="6.228270410439366 0.8161546346125792 0.6447269907238651 2.6544534832715003 5.693095590125107 0.6447269907238633 2.6544534832715034 1.9451805706551648 5.389182019417746" Properties=species:S:1:pos:R:3 unique_starting_index=42 config_type=initial n_minim_iter=34 pbc="T T T"
Si       7.59493739       6.46834942       2.45213121
Si       8.45578882       3.61100200       4.58212456
Si       5.99049467       6.07243082       5.72495617
Si       8.53907751       7.32807213       4.24543354
Si       9.55998948       5.50405048       4.79084764
Si       8.12823788       6.38721735       6.14616915
Si       7.48334563       5.48378739       4.33195572
Si       1.95743710       1.43440774       1.13312030
