8
Lattice="5.724579728038273 0.0 0.0 0.0 5.481036874765014 -1.5282457862707388e-16 0.0 1.5961514303660767e-16 5.7245797280382735" Properties=species:S:1:pos:R:3 unique_starting_index=2 config_type=initial n_minim_iter=1 energy=-1298.6563470387873 free_energy=-1298.6563470387873 pbc="T T T"
Si       2.96659573       1.75508915       3.95659541
Si       2.75732556       1.75508915       1.76883093
Si       3.95584289       3.72595487       2.75807808
Si       1.76807840       3.72595487       2.96734826
Si       5.61961542       3.72595487       1.09430555
Si       0.10430587       3.72595487       4.63112079
Si       4.63036827       1.75508915       5.62036794
Si       1.09355302       1.75508915       0.10505840
8
Lattice="5.490108969681122 4.1521864402608406e-81 -4.2629074734102994e-64 -7.750612313528922e-81 5.589046034734932 -1.356528630824235e-16 1.0618456853402753e-64 1.74458142269381e-16 5.490108969681126" Properties=species:S:1:pos:R:3 unique_starting_index=2 config_type=initial n_minim_iter=2 stress="-0.022603429592676073 2.0430185398705817e-17 2.1089223637373745e-17 2.0430185398705817e-17 0.016930629441857456 -2.87711381068468e-17 2.1089223637373745e-17 -2.87711381068468e-17 -0.022603429592674976" pbc="T T T"
Si       2.77937087       1.73037832       3.81307439
Si       2.71010663       1.73037832       1.67784651
Si       3.81235269       3.85867500       2.71082834
Si       1.67712481       3.85867500       2.78009257
Si       5.45516112       3.85867500       1.06801991
Si       0.03431638       3.85867500       4.42290100
Si       4.42217930       1.73037832       5.45588282
Si       1.06729820       1.73037832       0.03503808
8
Lattice="5.544808891275489 2.9263970655622703e-81 -4.4049045203230484e-64 -7.638570920227767e-81 5.521665451947473 -1.6818350977409401e-16 1.0724252341350608e-64 1.3979041324330705e-16 5.544808891275494" Properties=species:S:1:pos:R:3 unique_starting_index=2 config_type=initial n_minim_iter=3 stress="-0.005891976204204814 5.3790165682866425e-17 -8.861480182405351e-17 5.3790165682866425e-17 0.00901841144680126 7.806931341510249e-18 -8.861480182405351e-17 7.806931341510249e-18 -0.005891976204204479" pbc="T T T"
Si       2.77866517       1.68335564       3.85893726
Si       2.76550596       1.68335564       1.68669166
Si       3.85820837       3.83831701       2.76623486
Si       1.68596276       3.83831701       2.77939406
Si       5.53791041       3.83831701       1.08653282
Si       0.00626072       3.83831701       4.45909610
Si       4.45836721       1.68335564       5.53863930
Si       1.08580392       1.68335564       0.00698961
8
Lattice="5.5600388787326995 5.402707984140537e-81 -4.4087098388239905e-64 -7.873838909871498e-81 5.448194543739121 -1.994321291767754e-16 1.0752088903405438e-64 1.0514402592327899e-16 5.560038878732704" Properties=species:S:1:pos:R:3 unique_starting_index=2 config_type=initial n_minim_iter=4 stress="-0.004080305760511277 -1.3018743366832744e-17 -7.786269396156158e-17 -1.3018743366832744e-17 -0.01276432940411136 9.746033157330288e-18 -7.786269396156158e-17 9.746033157330288e-18 -0.004080305760511403" pbc="T T T"
Si       2.77761947       1.65153085       3.86606148
Si       2.78177989       1.65153085       1.69479968
Si       3.86533058       3.79667080       2.78251079
Si       1.69406878       3.79667080       2.77835037
Si       5.56179933       3.79667080       1.08604204
Si      -0.00239997       3.79667080       4.47481912
Si       4.47408822       1.65153085       5.56253023
Si       1.08531115       1.65153085      -0.00166907
8
Lattice="5.603113759734839 7.661756069669987e-81 -4.43976729701806e-64 -7.953023318492707e-81 5.476705920691444 -2.2794803801314923e-16 1.0892679207380173e-64 7.752498473181985e-17 5.603113759734843" Properties=species:S:1:pos:R:3 unique_starting_index=2 config_type=initial n_minim_iter=5 stress="0.002078995226760361 3.19622340359494e-17 -3.330408287647379e-17 3.19622340359494e-17 0.000811922410608987 9.191160103140752e-18 -3.330408287647379e-17 9.191160103140752e-18 0.0020789952267608364" pbc="T T T"
Si       2.79084489       1.64953267       3.89049545
Si       2.81162440       1.64953267       1.71344696
Si       3.88975889       3.82718039       2.81236096
Si       1.71271040       3.82718039       2.79158145
Si       5.61318128       3.82718039       1.08893857
Si      -0.01071199       3.82718039       4.51500384
Si       4.51426728       1.64953267       5.61391784
Si       1.08820201       1.64953267      -0.00997543
8
Lattice="5.613135792840794 5.354097826646173e-81 -4.4479670610854794e-64 -7.911088328999571e-81 5.464227760512536 -2.005596629167374e-16 1.090243084641135e-64 1.0622992496135881e-16 5.613135792840795" Properties=species:S:1:pos:R:3 unique_starting_index=2 config_type=initial n_minim_iter=6 stress="0.006285786721162205 -5.5297368890606006e-17 -1.7848898119062816e-16 -5.5297368890606006e-17 -0.004749906994754541 -2.486669064971962e-17 -1.7848898119062816e-16 -2.486669064971962e-17 0.006285786721161876" pbc="T T T"
Si       2.80621930       1.64480177       3.88543684
Si       2.80627087       1.64480177       1.72852908
Si       3.88469897       3.81943311       2.80700875
Si       1.72779121       3.81943311       2.80695718
Si       5.61283877       3.81943311       1.07886894
Si      -0.00034860       3.81943311       4.53509698
Si       4.53435910       1.64480177       5.61357664
Si       1.07813107       1.64480177       0.00038928
8
Lattice="5.596909118629956 -1.8511423297962985e-81 -4.4601635913134056e-64 -7.609017586819782e-81 5.465534582129917 -1.1619863689927514e-16 1.1038091132348966e-64 1.9375928318898027e-16 5.596909118629957" Properties=species:S:1:pos:R:3 unique_starting_index=2 config_type=initial n_minim_iter=7 stress="0.0017541660633773307 -6.857431046207105e-17 -2.143707112295018e-16 -6.857431046207105e-17 -0.004452134463805788 -2.9389849620456084e-17 -2.143707112295018e-16 -2.9389849620456084e-17 0.0017541660633760441" pbc="T T T"
Si       2.79766846       1.64199188       3.87235434
Si       2.79859690       1.64199188       1.72538251
Si       3.87161860       3.82354983       2.79933265
Si       1.72464677       3.82354983       2.79840420
Si       5.59705146       3.82354983       1.07389978
Si      -0.00078610       3.82354983       4.52383707
Si       4.52310133       1.64199188       5.59778721
Si       1.07316404       1.64199188      -0.00005036
8
Lattice="5.5761178265917115 1.4135699722148712e-81 -4.437374799210881e-64 -7.64648267384112e-81 5.478837120508137 -1.5408393792010547e-16 1.1033371895211377e-64 1.5438934582020227e-16 5.576117826591713" Properties=species:S:1:pos:R:3 unique_starting_index=2 config_type=initial n_minim_iter=8 stress="-0.0001675615465006591 -3.714777545823032e-17 -2.286706265597643e-16 -3.714777545823032e-17 0.0010704315520977715 -1.8711358937636574e-17 -2.286706265597643e-16 -1.8711358937636574e-17 -0.00016756154650109702" pbc="T T T"
Si       2.78214094       1.64180666       3.86279848
Si       2.79333552       1.64180666       1.71414400
Si       3.86206547       3.83703761       2.79406853
Si       1.71341099       3.83703761       2.78287395
Si       5.58139443       3.83703761       1.07473957
Si      -0.00591797       3.83703761       4.50220291
Si       4.50146990       1.64180666       5.58212744
Si       1.07400656       1.64180666      -0.00518496
8
Lattice="5.577108066603755 4.1597075650091974e-81 -4.439717890318245e-64 -7.639180584519548e-81 5.476082447369849 -1.8706484272331547e-16 1.1037923042051243e-64 1.1991546793705957e-16 5.577108066603755" Properties=species:S:1:pos:R:3 unique_starting_index=2 config_type=initial n_minim_iter=9 stress="-0.0009925332036497976 -3.4871924359700535e-17 -2.285592898654525e-16 -3.4871924359700535e-17 -6.327078787908782e-06 -4.000112205410888e-17 -2.285592898654525e-16 -4.000112205410888e-17 -0.0009925332036511117" pbc="T T T"
Si       2.78620274       1.64059634       3.86210852
Si       2.79026385       1.64059634       1.71582435
Si       3.86137538       3.83549325       2.79099699
Si       1.71509121       3.83549325       2.78693588
Si       5.57881789       3.83549325       1.07355448
Si      -0.00235130       3.83549325       4.50437839
Si       4.50364525       1.64059634       5.57955103
Si       1.07282134       1.64059634      -0.00161816
8
Lattice="5.578987492229166 2.9218912196446112e-81 -4.0430877433208686e-64 -4.766220621841982e-81 5.470904744489911 -2.520672747427457e-16 1.1041346791262706e-64 5.200609867189479e-17 5.578987492229167" Properties=species:S:1:pos:R:3 unique_starting_index=2 config_type=initial n_minim_iter=10 stress="0.000716093204313116 -7.00888227419345e-18 -1.541794923308701e-16 -7.00888227419345e-18 -0.0010393954293302452 -5.3781615203228646e-17 -1.541794923308701e-16 -5.3781615203228646e-17 0.0007160932043129492" pbc="T T T"
Si       2.78937493       1.63462295       3.86496345
Si       2.78897086       1.63462295       1.71484912
Si       3.86423007       3.83628893       2.78970425
Si       1.71411573       3.83628893       2.79010832
Si       5.57846461       3.83628893       1.07546971
Si      -0.00011881       3.83628893       4.50434286
Si       4.50360948       1.63462295       5.57919800
Si       1.07473632       1.63462295       0.00061457
8
Lattice="5.575343318636705 -1.2644324787146378e-81 -3.974097364806752e-64 1.5714197684467025e-82 5.472994505679425 -2.169797211171166e-16 1.2775807657381601e-64 8.850062257048517e-17 5.5753433186367065" Properties=species:S:1:pos:R:3 unique_starting_index=2 config_type=initial n_minim_iter=11 stress="2.245489401757779e-05 -1.8598882321801764e-17 -3.0353423427824015e-16 -1.8598882321801764e-17 2.3792332436688466e-05 5.2502059279589623e-17 -3.0353423427824015e-16 5.2502059279589623e-17 2.2454894016826006e-05" pbc="T T T"
Si       2.78729590       1.63339846       3.86268225
Si       2.78740615       1.63339846       1.71348561
Si       3.86194934       3.83960318       2.78813905
Si       1.71275271       3.83960318       2.78802881
Si       5.57507781       3.83960318       1.07501059
Si      -0.00037576       3.83960318       4.50115727
Si       4.50042437       1.63339846       5.57581071
Si       1.07427768       1.63339846       0.00035715
