8
Lattice="5.762090000000002 -3.2450675027150306e-16 5.496236244042671e-16 -1.0600401234553327 5.663744000638167 -5.496236244042648e-16 -2.6074139867304598 -2.619017377385193 4.677065331477747" Properties=species:S:1:pos:R:3 unique_starting_index=38 config_type=initial n_minim_iter=1 pbc="T T T"
Si       2.94962687       3.37467305       1.40455218
Si       0.16702332       0.90109835       3.27251315
Si      -0.85499120      -0.32994529       3.27251315
Si       1.92761235       2.14362941       1.40455218
Si       1.54133176       0.13554386       3.56438307
Si       1.94430992       4.58468759       1.11268226
Si       0.55330392       2.90918390       1.11268226
Si       0.15032575      -1.53995983       3.56438307
8
Lattice="5.833264499117606 -0.015766398890796042 0.008636354738864873 -1.0886312547915158 5.730803197379126 -0.00863635473886482 -2.62544496446328 -2.6473708200935793 4.686406988227986" Properties=species:S:1:pos:R:3 unique_starting_index=38 config_type=initial n_minim_iter=2 pbc="T T T"
Si       2.98172154       3.40320232       1.40818029
Si       0.17113028       0.90954027       3.27822669
Si      -0.86253348      -0.33553520       3.27822669
Si       1.94805778       2.15812686       1.40818029
Si       1.56728701       0.12745117       3.57452444
Si       1.95613281       4.63165041       1.11188255
Si       0.55190105       2.94021595       1.11188255
Si       0.16305525      -1.56398328       3.57452444
8
Lattice="20.840063265815502 -5.485016391322282 2.3211655583181283 -9.225303998525806 19.475302510386076 -2.3211655583181203 -5.053214413188509 -7.62125230481937 5.63044309308993" Properties=species:S:1:pos:R:3 unique_starting_index=38 config_type=initial n_minim_iter=3 pbc="T T T"
Si       9.03967177       7.48249395       1.95911102
Si       0.63855681       2.64067436       3.67133160
Si      -2.47812877      -1.11345623       3.67133160
Si       5.92298619       3.72836336       1.95911102
Si       7.69922528      -2.74226763       5.16070157
Si       2.44966757      13.43236356       0.46974106
Si      -1.13768228       9.11130536       0.46974106
Si       4.11187543      -7.06332584       5.16070157
