8
Lattice="5.575343318636705 -1.2644324787146378e-81 -3.974097364806752e-64 1.5714197684467025e-82 5.472994505679425 -2.169797211171166e-16 1.2775807657381601e-64 8.850062257048517e-17 5.5753433186367065" Properties=species:S:1:pos:R:3 unique_starting_index=2 config_type=initial n_minim_iter=11 energy=-1299.258346368099 free_energy=-1299.258346368099 pbc="T T T"
Si       2.78729590       1.63339846       3.86268225
Si       2.78740615       1.63339846       1.71348561
Si       3.86194934       3.83960318       2.78813905
Si       1.71275271       3.83960318       2.78802881
Si       5.57507781       3.83960318       1.07501059
Si      -0.00037576       3.83960318       4.50115727
Si       4.50042437       1.63339846       5.57581071
Si       1.07427768       1.63339846       0.00035715
