14
Lattice="5.924838873307869 0.13870755036265098 -7.975658618537938e-16 -0.029059541112680613 2.6087685038187756 -3.9325257158804494e-14 -2.978553160509626e-15 2.3437711649943604e-13 15.55001984466379" Properties=species:S:1:pos:R:3 unique_starting_index=0 config_type=initial n_minim_iter=1 energy=-2276.89691699458 free_energy=-2276.89691699458 pbc="T T T"
Si       1.81090020       0.71474974      12.06065103
Si       1.13698947       0.65898829       4.28564111
Si       4.08487914       2.03272631       3.48936882
Si       4.75878986       2.08848777      11.26437874
Si       5.02172965       0.80812962       5.47487648
Si       3.85099889       0.70431596      13.24988641
Si       0.87404968       1.93934644      10.07514336
Si       2.04478044       2.04316009       2.30013344
Si       2.69095299       0.72132258       6.10663867
Si       0.25693667       0.65241545      13.88164859
Si       3.20482634       2.02615348       9.44338117
Si       5.63884266       2.09506061       1.66837125
Si       2.96241944       0.06935378       0.00000000
Si      -0.01452977       1.30438425       7.77500992
14
Lattice="5.9735862600399035 0.12831452400306043 -5.604876473142633e-16 -0.034436664594012366 2.632768738160265 -3.9687423608683424e-14 -2.761119983296587e-15 2.3224317123528065e-13 15.408057289516856" Properties=species:S:1:pos:R:3 unique_starting_index=0 config_type=initial n_minim_iter=2 stress="0.007965714454302353 -0.0006248493965639973 -2.024485913390856e-16 -0.0006248493965639973 0.0050537627878658575 -6.44961363527941e-17 -2.024485913390856e-16 -6.44961363527941e-17 0.003917386093936495" pbc="T T T"
Si       1.82369383       0.71716601      11.95232370
Si       1.14588097       0.66337562       4.24829505
Si       4.11545576       2.04391726       3.45573359
Si       4.79326863       2.09770764      11.15976223
Si       5.06272298       0.80657417       5.42793724
Si       3.88043808       0.70228198      13.13196589
Si       0.87642662       1.95450909       9.98012005
Si       2.05871152       2.05880128       2.27609140
Si       2.71019150       0.72428810       6.05878719
Si       0.25938330       0.65625353      13.76281583
Si       3.22895810       2.03679516       9.34927010
Si       5.67976630       2.10482973       1.64524146
Si       2.98679313       0.06415726       0.00000000
Si      -0.01721833       1.31638437       7.70402864
14
Lattice="5.962993560080634 0.1239411975335307 -1.9564956448645492e-16 -0.03640966612154997 2.6370117573416025 -3.97489080678025e-14 -1.9510281820603004e-15 2.2994652693792313e-13 15.253925258308495" Properties=species:S:1:pos:R:3 unique_starting_index=0 config_type=initial n_minim_iter=3 stress="-0.00021957809264349078 -0.001111595385329525 -1.3245644273897297e-16 -0.001111595385329525 0.0032037912477385893 -1.774858491460867e-16 -1.3245644273897297e-16 -1.774858491460867e-16 -0.009275755300150918" pbc="T T T"
Si       1.81938315       0.71634155      11.83440584
Si       1.14390880       0.66413493       4.20744321
Si       4.10720074       2.04461140       3.41951942
Si       4.78267510       2.09681803      11.04648205
Si       5.05381687       0.80488346       5.37627095
Si       3.87246864       0.69953421      13.00323358
Si       0.87276702       1.95606949       9.87765431
Si       2.05411526       2.06141874       2.25069168
Si       2.70385828       0.72498827       6.00544264
Si       0.25943367       0.65548821      13.63240527
Si       3.22272562       2.03596469       9.24848261
Si       5.66715022       2.10546475       1.62151999
Si       2.98149678       0.06197060       0.00000000
Si      -0.01820483       1.31850588       7.62696263
14
Lattice="5.8501375291211675 0.13833445336172578 -5.22234270527692e-17 -0.028569265961649472 2.596459597841354 -3.913379544555574e-14 -8.473872400961241e-16 2.2362772127875217e-13 14.832770681173692" Properties=species:S:1:pos:R:3 unique_starting_index=0 config_type=initial n_minim_iter=4 stress="-0.027107846097327297 -0.003452850864885543 3.017403663126496e-17 -0.003452850864885543 0.0004490952929334109 -4.72870259778538e-16 3.017403663126496e-17 -4.72870259778538e-16 -0.030232795039881005" pbc="T T T"
Si       1.77944166       0.69808009      11.53888985
Si       1.13134247       0.66931694       4.12250451
Si       4.04212660       2.03671396       3.29388084
Si       4.69022579       2.06547711      10.71026618
Si       4.96674595       0.82226645       5.28045909
Si       3.79417571       0.68346503      12.69684443
Si       0.85482231       1.91252761       9.55231160
Si       2.02739256       2.05132902       2.13592625
Si       2.64175757       0.75374995       5.98738389
Si       0.26902656       0.61364707      13.40376923
Si       3.17981069       1.98104410       8.84538680
Si       5.55254170       2.12114698       1.42900145
Si       2.92506876       0.06916723       0.00000000
Si      -0.01428463       1.29822980       7.41638534
14
Lattice="5.8621371125718476 0.1574071795579367 -3.72896147895804e-16 -0.019585779305010487 2.568933439697097 -4.7838777771366767e-14 2.8929916207731027e-16 1.6841701138151072e-13 14.767242027924777" Properties=species:S:1:pos:R:3 unique_starting_index=0 config_type=initial n_minim_iter=5 stress="-0.021526876575179568 -0.0027547934518648274 1.2415842746577346e-16 -0.0027547934518648274 -0.010871559945143475 -1.003062833350372e-15 1.2415842746577346e-16 -1.003062833350372e-15 -0.0339976067177068" pbc="T T T"
Si       1.78192372       0.69401092      11.49544738
Si       1.13935195       0.66915939       4.11182636
Si       4.06062761       2.03232970       3.27179465
Si       4.70319939       2.05718123      10.65541566
Si       4.97841299       0.83489016       5.26924594
Si       3.80499979       0.68568732      12.65286695
Si       0.86413835       1.89145045       9.49799609
Si       2.03755154       2.04065329       2.11437508
Si       2.64622490       0.76313634       5.99796737
Si       0.27505076       0.60003397      13.38158838
Si       3.19632643       1.96320428       8.76927466
Si       5.56750057       2.12630665       1.38565365
Si       2.93106856       0.07870359       0.00000000
Si      -0.00979289       1.28446672       7.38362101
14
Lattice="5.812103233797262 0.227699897230522 -1.2464737559474961e-15 0.011655294341698631 2.567008972601681 -4.7747133290566764e-14 7.830284118800651e-17 1.7229784211467314e-13 14.954736409240338" Properties=species:S:1:pos:R:3 unique_starting_index=0 config_type=initial n_minim_iter=6 stress="-0.0119295241090689 -0.0016288251294666561 3.0694260736612304e-16 -0.0016288251294666561 -0.00019886991806383604 -1.1791846620642202e-16 3.0694260736612304e-16 -1.1791846620642202e-16 -0.005973289704149058" pbc="T T T"
Si       1.76377304       0.70916184      11.65807881
Si       1.14810623       0.68819259       4.18071060
Si       4.05998549       2.08554703       3.29665760
Si       4.67565230       2.10651628      10.77402581
Si       4.93451040       0.90105267       5.35742918
Si       3.78947210       0.72400166      12.83479739
Si       0.88924813       1.89365620       9.59730723
Si       2.03428643       2.07070721       2.11993902
Si       2.62551867       0.81032897       6.14915818
Si       0.28636059       0.58702546      13.62652639
Si       3.19823986       1.98437990       8.80557823
Si       5.53739793       2.20768341       1.32821002
Si       2.90605162       0.11384995       0.00000000
Si       0.00582765       1.28350449       7.47736820
14
Lattice="5.848359282615391 0.2908568720539499 -2.0641462641626897e-15 0.039529371396268345 2.556619684404295 -4.758049670991457e-14 -1.3339517973385757e-16 1.7319157728621593e-13 14.989028240236594" Properties=species:S:1:pos:R:3 unique_starting_index=0 config_type=initial n_minim_iter=7 stress="0.006608640214798004 -0.0012479189207519514 6.032768047797502e-16 -0.0012479189207519514 -0.0014208464360417248 3.216624206276211e-17 6.032768047797502e-16 3.216624206276211e-17 0.006817733753061209" pbc="T T T"
Si       1.76781505       0.72266752      11.69449859
Si       1.17612927       0.70107076       4.19998447
Si       4.12007360       2.12480904       3.29452965
Si       4.71175938       2.14640580      10.78904377
Si       4.95746198       0.95388156       5.37619488
Si       3.83484163       0.76071359      12.87070900
Si       0.93042667       1.89359500       9.61283336
Si       2.05304703       2.08676296       2.11831924
Si       2.64184710       0.84332622       6.20028997
Si       0.30209723       0.58041206      13.69480409
Si       3.24604156       2.00415034       8.78873827
Si       5.58579143       2.26706450       1.29422415
Si       2.92417964       0.14542844      -0.00000000
Si       0.01976469       1.27830984       7.49451412
14
Lattice="5.828113387396211 0.4912940569280095 -4.891360989652221e-15 0.1277343986014504 2.5629782229933764 -4.3034939106347305e-14 -1.270474170909405e-15 1.9855808585558326e-13 14.863358678030266" Properties=species:S:1:pos:R:3 unique_starting_index=0 config_type=initial n_minim_iter=8 stress="0.008852633173573456 -0.0012101166112443989 6.451599564717831e-16 -0.0012101166112443989 -0.003395756027674464 1.8992139456119273e-16 6.451599564717831e-16 1.8992139456119273e-16 0.005793271926439878" pbc="T T T"
Si       1.74170965       0.77112022      11.63562893
Si       1.23621425       0.75601592       4.20394959
Si       4.21413814       2.28315206       3.22772975
Si       4.71963354       2.29825636      10.65940909
Si       4.92266603       1.13337382       5.36358527
Si       3.88337125       0.88505637      12.79526461
Si       1.03318176       1.92089846       9.49977340
Si       2.07247653       2.16921591       2.06809407
Si       2.62952469       0.96337882       6.29565579
Si       0.34839921       0.56375732      13.72733513
Si       3.32632310       2.09089346       8.56770289
Si       5.60744858       2.49051496       1.13602355
Si       2.91405669       0.24564703      -0.00000000
Si       0.06386720       1.28148911       7.43167934
14
Lattice="5.822934762760459 0.5956183230703619 -6.309232112287506e-15 0.17335417148834317 2.5775307426988148 -4.3207187890309075e-14 -1.288315197495882e-15 1.9841674682494653e-13 14.848215390441013" Properties=species:S:1:pos:R:3 unique_starting_index=0 config_type=initial n_minim_iter=9 stress="0.012609333600741934 0.0014426161241003642 2.5219723625691835e-16 0.0014426161241003642 -0.0015283588320302713 2.8530517776453966e-17 2.5219723625691835e-16 2.8530517776453966e-17 0.007789775958992797" pbc="T T T"
Si       1.73449040       0.80247598      11.63779247
Si       1.26365406       0.78409855       4.21368478
Si       4.26179853       2.37067309       3.21042292
Si       4.73263487       2.38905051      10.63453061
Si       4.91089336       1.22395529       5.35723309
Si       3.91018587       0.95823756      12.78134078
Si       1.08539557       1.94919377       9.49098231
Si       2.08610307       2.21491150       2.06687461
Si       2.62409670       1.01845498       6.32329009
Si       0.37404777       0.56811956      13.74739778
Si       3.37219224       2.15469409       8.52492530
Si       5.62224117       2.60502951       1.10081761
Si       2.91146738       0.29780916      -0.00000000
Si       0.08667709       1.28876537       7.42410770
14
Lattice="5.799019196059696 0.6726515338701679 -7.409967169031327e-15 0.2067211703984536 2.606099463274826 -4.358327690023125e-14 -1.4560737355373158e-15 1.9935990655504218e-13 14.90261659895217" Properties=species:S:1:pos:R:3 unique_starting_index=0 config_type=initial n_minim_iter=10 stress="0.014689513272516594 0.003818934240595413 4.0424059777355263e-16 0.003818934240595413 0.011475102674221953 -2.2153162143755634e-16 4.0424059777355263e-16 -2.2153162143755634e-16 0.017127352713806335" pbc="T T T"
Si       1.72134217       0.83588825      11.68850484
Si       1.28152802       0.80348725       4.23719655
Si       4.28439820       2.44286275       3.21411175
Si       4.72421235       2.47526375      10.66542005
Si       4.87532961       1.28676046       5.34771022
Si       3.92655977       1.02526657      12.79901852
Si       1.13041075       1.99199054       9.55490638
Si       2.07918060       2.25348443       2.10359808
Si       2.59752192       1.05048512       6.32199002
Si       0.40534827       0.58889038      13.77329832
Si       3.40821845       2.22826588       8.58062658
Si       5.60039210       2.68986061       1.12931828
Si       2.89950960       0.33632577      -0.00000000
Si       0.10336059       1.30304973       7.45130830
14
Lattice="5.693094632027868 0.7132501558151949 -8.038272292303546e-15 0.22514346718197337 2.604955944654211 -4.3570768105684293e-14 -1.600479129763671e-15 1.9810356430216323e-13 14.829626911992465" Properties=species:S:1:pos:R:3 unique_starting_index=0 config_type=initial n_minim_iter=11 stress="0.0034783982877183038 0.004678202459742603 1.336452386242154e-16 0.004678202459742603 0.002443651706436725 -2.8794329157043067e-16 1.336452386242154e-16 -2.8794329157043067e-16 0.0023077124249594916" pbc="T T T"
Si       1.66340954       0.84935149      11.66814270
Si       1.29570951       0.80975156       4.25332924
Si       4.25482856       2.46885461       3.16148421
Si       4.62252859       2.50845454      10.57629767
Si       4.74655444       1.31056284       5.29750677
Si       3.90565924       1.06179037      12.71232023
Si       1.17168366       2.00764326       9.53212014
Si       2.01257885       2.25641573       2.11730668
Si       2.50004698       1.06747480       6.34182990
Si       0.45907207       0.59162825      13.75664335
Si       3.41819112       2.25073130       8.48779701
Si       5.45916603       2.72657785       1.07298356
Si       2.84654732       0.35662508      -0.00000000
Si       0.11257173       1.30247797       7.41481346
14
Lattice="5.624934043789769 0.6331940493793803 -6.991508048644659e-15 0.19043648694907853 2.596060481287328 -4.346214129936659e-14 -1.6606698380413081e-15 1.9793850738344987e-13 14.821957912414561" Properties=species:S:1:pos:R:3 unique_starting_index=0 config_type=initial n_minim_iter=12 stress="-0.007072077720002669 0.003051830451687361 2.330713126260953e-16 0.003051830451687361 -0.0016062304732328894 -4.4016858923345727e-16 2.330713126260953e-16 -4.4016858923345727e-16 -0.007374950645702405" pbc="T T T"
Si       1.62754413       0.82888645      11.67763055
Si       1.28014113       0.78574082       4.26665160
Si       4.18782640       2.40036808       3.14432736
Si       4.53522940       2.44351371      10.55530631
Si       4.66391080       1.23707139       5.28180073
Si       3.86870851       1.01074992      12.69277968
Si       1.15145973       1.99218314       9.54015719
Si       1.94666202       2.21850461       2.12917823
Si       2.43366611       1.03024011       6.35919794
Si       0.47401916       0.58438715      13.77017689
Si       3.38170442       2.19901442       8.46275998
Si       5.34135137       2.64486738       1.05178102
Si       2.81246702       0.31659702      -0.00000000
Si       0.09521824       1.29803024       7.41097896
14
Lattice="5.600570252385048 0.5139004557870973 -5.391853662784651e-15 0.13834476954612535 2.5826052885335726 -4.329044624210287e-14 -1.693320314077229e-15 1.985630529749107e-13 14.85984381044477" Properties=species:S:1:pos:R:3 unique_starting_index=0 config_type=initial n_minim_iter=13 stress="-0.008748356160723477 -0.00020114964964787312 2.179544171393621e-16 -0.00020114964964787312 -0.0020746411342183165 -8.033946459693396e-16 2.179544171393621e-16 -8.033946459693396e-16 -0.0073357485350185525" pbc="T T T"
Si       1.61220957       0.79661915      11.71180879
Si       1.25724794       0.75163372       4.28188689
Si       4.12670545       2.29988659       3.14803502
Si       4.48166708       2.34487202      10.57795692
Si       4.62671744       1.13248715       5.28939323
Si       3.84331032       0.92966617      12.71931514
Si       1.11219758       1.96401859       9.57045058
Si       1.89560470       2.16683957       2.14052867
Si       2.39681461       0.97642819       6.38506000
Si       0.47264290       0.57182468      13.81498190
Si       3.34210041       2.12007756       8.47478381
Si       5.26627212       2.52468106       1.04486191
Si       2.80028513       0.25695023      -0.00000000
Si       0.06917238       1.29130264       7.42992191
14
Lattice="5.602379864325123 0.4697504426111794 -4.7897612604832914e-15 0.1190278386888943 2.576981604378484 -4.3214379565369297e-14 -1.6903374661240805e-15 1.9914749164799702e-13 14.893621807332334" Properties=species:S:1:pos:R:3 unique_starting_index=0 config_type=initial n_minim_iter=14 stress="-0.005809274187914522 -0.0017975413245721987 1.5125688634064656e-16 -0.0017975413245721987 -0.003168284342939853 -6.93083900938656e-16 1.5125688634064656e-16 -6.93083900938656e-16 -0.004286460314118175" pbc="T T T"
Si       1.61054777       0.78610657      11.74362533
Si       1.25015608       0.73725945       4.29681442
Si       4.11085993       2.26062547       3.14999648
Si       4.47125162       2.30947260      10.59680738
Si       4.61635571       1.09154394       5.29543015
Si       3.84672801       0.90157252      12.74224105
Si       1.10505200       1.95518810       9.59819166
Si       1.87467969       2.14515952       2.15138075
Si       2.38046886       0.95700407       6.41263302
Si       0.48023500       0.56636195      13.85944392
Si       3.34093885       2.08972798       8.48098879
Si       5.24117271       2.48037009       1.03417789
Si       2.80118993       0.23487522      -0.00000000
Si       0.05951392       1.28849080       7.44681090
14
Lattice="5.6513049519579726 0.461146046186059 -4.654217494628826e-15 0.11483606647173021 2.5839527893936336 -4.330401244430565e-14 -1.672582960884867e-15 1.9982797752610156e-13 14.932405531092172" Properties=species:S:1:pos:R:3 unique_starting_index=0 config_type=initial n_minim_iter=15 stress="0.005590063359695083 -0.0014549760329997836 8.907451868872492e-17 -0.0014549760329997836 0.0017507730083967143 -4.4373578129489847e-16 8.907451868872492e-17 -4.4373578129489847e-16 0.006961542947370125" pbc="T T T"
Si       1.63604946       0.79470138      11.78178476
Si       1.24702105       0.72784804       4.31558199
Si       4.13009156       2.25039746       3.15062078
Si       4.51911997       2.31725079      10.61682354
Si       4.63993206       1.07661036       5.28869189
Si       3.89444340       0.90708510      12.75489466
Si       1.12620896       1.96848848       9.64371364
Si       1.87169762       2.13801373       2.17751087
Si       2.37605538       0.95256766       6.44094726
Si       0.50701513       0.56998175      13.90715002
Si       3.39008564       2.09253117       8.49145828
Si       5.25912589       2.47511708       1.02525551
Si       2.82565248       0.23057302      -0.00000000
Si       0.05741803       1.29197639       7.46620277
14
Lattice="5.714599835376124 0.5103859691606365 -5.197309741556078e-15 0.13578048765482323 2.6021487643676933 -4.354350883131849e-14 -1.3140491045702072e-15 1.965884514122279e-13 14.737416234272759" Properties=species:S:1:pos:R:3 unique_starting_index=0 config_type=initial n_minim_iter=16 stress="5.633025565290056e-05 -6.461077468035648e-05 -3.7718504487902116e-16 -6.461077468035648e-05 -0.0003583624593882947 -8.357430630902964e-16 -3.7718504487902116e-16 -8.357430630902964e-16 -0.00035900586538636567" pbc="T T T"
Si       1.70200847       0.83123658      11.64069506
Si       1.22318169       0.72503078       4.27198695
Si       4.14837185       2.28129815       3.09672117
Si       4.62719863       2.38750395      10.46542929
Si       4.67955607       1.10302198       5.18822465
Si       3.96023392       0.96363136      12.55693277
Si       1.17082425       2.00951275       9.54919158
Si       1.89014640       2.14890338       2.18048347
Si       2.37804361       0.97093835       6.37758420
Si       0.54714655       0.58532902      13.74629232
Si       3.47233671       2.14159639       8.35983203
Si       5.30323377       2.52720571       0.99112391
Si       2.85729992       0.25519298      -0.00000000
Si       0.06789024       1.30107438       7.36870812
14
Lattice="5.849609227081917 0.5546971377306257 -5.341173926820548e-15 0.15422663281053206 2.619334794086162 -5.161555444684152e-14 1.0145437369117733e-15 1.4569916008336467e-13 14.488142938672102" Properties=species:S:1:pos:R:3 unique_starting_index=0 config_type=initial n_minim_iter=17 stress="-0.0013588795753790774 0.001043386498355782 -2.0164522686760976e-16 0.001043386498355782 0.001536601094844778 -2.058305833691565e-15 -2.0164522686760976e-16 -2.058305833691565e-15 -0.0026818706863480086" pbc="T T T"
Si       1.82370606       0.87079913      11.44044428
Si       1.17821187       0.71621684       4.19637281
Si       4.18012980       2.30323280       3.04769866
Si       4.82562399       2.45781510      10.29177013
Si       4.79688420       1.12059759       5.07079956
Si       4.05464296       1.02111552      12.31487103
Si       1.20695166       2.05343434       9.41734337
Si       1.94919290       2.15291642       2.17327191
Si       2.43516341       0.97937392       6.25205921
Si       0.56675452       0.60764204      13.49613068
Si       3.56867245       2.19465801       8.23608373
Si       5.43708134       2.56638989       0.99201226
Si       2.92480461       0.27734857      -0.00000000
Si       0.07711332       1.30966740       7.24407147
14
Lattice="5.81256384749561 0.5263794896256841 -5.777255015469804e-15 0.14242037012245506 2.5988062603687774 -5.015499100979087e-14 -1.1386548102460372e-15 1.5526053281863039e-13 14.602377807362368" Properties=species:S:1:pos:R:3 unique_starting_index=0 config_type=initial n_minim_iter=18 stress="0.0018984671708620435 0.0002654664293623504 -2.6075603814227925e-16 0.0002654664293623504 -0.004055086142602578 -1.643698828212098e-15 -2.6075603814227925e-16 -1.643698828212098e-15 0.0029048095891500685" pbc="T T T"
Si       1.78878789       0.84410421      11.53512730
Si       1.18870422       0.71848866       4.23393840
Si       4.16619633       2.28108154       3.06725051
Si       4.76628000       2.40669709      10.36843941
Si       4.75896805       1.09292778       5.13244936
Si       4.03108791       0.99604458      12.43363827
Si       1.19601617       2.03225797       9.46992845
Si       1.92389631       2.12914117       2.16873954
Si       2.43409621       0.96702454       6.30791898
Si       0.54339590       0.59556834      13.60910788
Si       3.52088801       2.15816121       8.29445883
Si       5.41158832       2.52961741       0.99326992
Si       2.90628192       0.26318974      -0.00000000
Si       0.07121019       1.29940313       7.30118890
14
Lattice="5.981889556993346 0.5143973535418903 -5.5002765629887385e-15 0.13590684189333047 2.616198670569559 -5.0363564457993824e-14 -7.930604994776718e-16 1.485561127717659e-13 14.258596428090833" Properties=species:S:1:pos:R:3 unique_starting_index=0 config_type=initial n_minim_iter=19 stress="0.014870435449823095 0.00040457690023800846 -1.2531691354324828e-16 0.00040457690023800846 -0.0005704480262889446 -1.956280731608584e-15 -1.2531691354324828e-16 -1.956280731608584e-15 0.0024494116817025315" pbc="T T T"
Si       1.93549520       0.85715868      11.30066837
Si       1.12340300       0.70813934       4.17137016
Si       4.18230120       2.27343735       2.95792806
Si       4.99439340       2.42245669      10.08722627
Si       4.82956750       1.01196796       4.98556032
Si       4.21122026       1.06772741      12.11485854
Si       1.28822890       2.11862807       9.27303611
Si       1.90657614       2.06286861       2.14373789
Si       2.50942368       0.94215299       6.15137236
Si       0.54947452       0.62314502      13.28067057
Si       3.60837272       2.18844304       8.10722407
Si       5.56832188       2.50745100       0.97792586
Si       2.99094478       0.25719868      -0.00000000
Si       0.06795342       1.30809934       7.12929821
14
Lattice="5.9374038762283 0.4771824314423789 -5.0580654266686576e-15 0.11975093338065315 2.615685155721544 -5.0373295177481995e-14 -7.03439678181191e-16 1.4863325523990315e-13 14.266573604031844" Properties=species:S:1:pos:R:3 unique_starting_index=0 config_type=initial n_minim_iter=20 stress="0.01060415885781209 -0.0009096313762408444 -2.232390061070139e-16 -0.0009096313762408444 -0.0017336210879081338 -1.7507067986674526e-15 -2.232390061070139e-16 -1.7507067986674526e-15 0.001488463902479142" pbc="T T T"
Si       1.92236289       0.84219443      11.32301291
Si       1.10621452       0.70423937       4.18972611
Si       4.13479192       2.25067316       2.94356069
Si       4.95094029       2.38862822      10.07684749
Si       4.75733872       0.95652512       4.98169761
Si       4.20864256       1.06709111      12.11498441
Si       1.29981609       2.13634247       9.28487599
Si       1.84851225       2.02577648       2.15158919
Si       2.49030715       0.91757988       6.14077766
Si       0.53827025       0.62885392      13.27406446
Si       3.56684766       2.17528771       8.12579594
Si       5.51888456       2.46401367       0.99250914
Si       2.96870194       0.23859122      -0.00000000
Si       0.05987547       1.30784258       7.13328680
14
Lattice="5.9020452774067005 0.4916942897402052 -5.203544832883057e-15 0.12609136986959937 2.625198112503626 -5.0502939509570685e-14 -6.388512794889168e-16 1.4776838689009376e-13 14.229261510932657" Properties=species:S:1:pos:R:3 unique_starting_index=0 config_type=initial n_minim_iter=21 stress="0.0037023878686739827 -5.538724857065365e-06 -9.024907448295366e-17 -5.538724857065365e-06 -0.0012912859997068656 -1.7305955228058264e-15 -9.024907448295366e-17 -1.7305955228058264e-15 0.0010046074621264216" pbc="T T T"
Si       1.93348286       0.84987560      11.30789676
Si       1.08058546       0.70857060       4.19326600
Si       4.09465378       2.26701681       2.92136475
Si       4.94755119       2.40832180      10.03599551
Si       4.69920416       0.94317552       4.96096430
Si       4.21690944       1.10696497      12.07559505
Si       1.32893248       2.17371689       9.26829721
Si       1.81122721       2.00992743       2.15366646
Si       2.48374299       0.91837172       6.12104776
Si       0.53032534       0.64007449      13.23567851
Si       3.54439366       2.19852069       8.10821375
Si       5.49781131       2.47681792       0.99358300
Si       2.95102264       0.24584714      -0.00000000
Si       0.06304568       1.31259906       7.11463076
