22
Lattice="5.47212347919078 -0.5651040199440497 -1.372179659653851 -2.179310261753825 9.78378374129565 -1.4312816264890762 -4.330050479697963 -4.012231826399688 11.555455985846896" Properties=species:S:1:pos:R:3 unique_starting_index=18 config_type=initial n_minim_iter=1 energy=-3572.5176124135014 free_energy=-3572.5176124135014 pbc="T T T"
Si       0.62703331       8.09676158       0.10554845
Si      -0.60097491       0.32442094       6.23669099
Si      -3.98013120      -2.99362584      10.44387770
Si       0.22340469      -1.83671775       9.50840353
Si      -4.83465791       0.70835289       9.91604088
Si       3.63714593       2.13135742       0.19972635
Si       2.45860528       0.16293903       0.22490030
Si      -1.73762499       1.25818003       8.85134911
Si      -1.53445438      -2.96686767       9.87263202
Si      -2.75183732       1.37632217       6.83050229
Si       2.17791390       0.20048271       3.47773785
Si      -2.45217863       3.89594640       5.89729303
Si      -2.64784318      -1.19700498       6.61436418
Si      -0.83670876       6.59298727      -0.61057009
Si       1.23674427       2.28558539       5.02158830
Si       1.23002777       6.41342786      -1.07667454
Si      -0.37118844      -0.90056545       3.09316587
Si       2.42052011      -3.54051342       6.87242902
Si       0.55103373       2.12284101       3.01543764
Si      -2.84947823       3.17468685       7.96701210
Si      -1.47482340       3.84150731       3.38406811
Si      -1.39813249      -0.92131967       8.46775489
22
Lattice="5.339498461525946 -0.5845853649586699 -1.4229232179311042 -2.186466707032034 9.791723131100731 -1.587752136595535 -4.280694172591322 -4.155735193023134 11.763232274252527" Properties=species:S:1:pos:R:3 unique_starting_index=18 config_type=initial n_minim_iter=2 stress="0.021653456168566485 0.006634455561975307 -0.00023438547697444495 0.006634455561975307 0.0006634794506956218 -0.0081740465229831 -0.00023438547697444495 -0.0081740465229831 0.007102721289877688" pbc="T T T"
Si       0.57456867       8.09737733      -0.03948716
Si      -0.63977802       0.21718439       6.28382804
Si      -3.92188519      -3.12083379      10.63065519
Si       0.18217108      -1.96835202       9.65945989
Si      -4.83397776       0.59508570      10.05028096
Si       3.53709627       2.06966000       0.10316969
Si       2.37582749       0.13919988       0.19624846
Si      -1.77254422       1.13883802       8.92384695
Si      -1.58039853      -3.11302529      10.04364643
Si      -2.71748492       1.29285856       6.88359942
Si       2.05832850       0.10388715       3.45994762
Si      -2.45535142       3.79597095       5.90714990
Si      -2.64431870      -1.30182084       6.69998870
Si      -0.89561581       6.54316487      -0.73112390
Si       1.09497218       2.15447492       4.99549890
Si       1.17311777       6.41578295      -1.21495942
Si      -0.38465572      -0.94051741       3.13365531
Si       2.32353358      -3.67437531       6.97457336
Si       0.46442699       2.06115952       2.98611597
Si      -2.82744661       3.07508040       8.05702413
Si      -1.48221105       3.78842853       3.38027412
Si      -1.41291663      -1.03416514       8.59335561
22
Lattice="5.3029586642589095 -0.5956816189089926 -1.4272125326747125 -2.1907128848755075 9.791812538646786 -1.5881118253396955 -4.251676252865232 -4.147737038703894 11.764030222594405" Properties=species:S:1:pos:R:3 unique_starting_index=18 config_type=initial n_minim_iter=3 stress="0.002081168487319652 0.0007129979755282789 8.523914408637892e-05 0.0007129979755282789 -0.0050648480021959616 -0.004955407286259482 8.523914408637892e-05 -0.004955407286259482 0.0028252013854683415" pbc="T T T"
Si       0.55610646       8.09608358      -0.04339198
Si      -0.64156694       0.21555077       6.28094001
Si      -3.89438970      -3.11336445      10.63218592
Si       0.17864397      -1.96868729       9.66114746
Si      -4.81471703       0.60277813      10.05211476
Si       3.50871823       2.05814418       0.09543260
Si       2.35624598       0.13396253       0.19244825
Si      -1.77033765       1.14124677       8.92147404
Si      -1.57443520      -3.11120727      10.04515296
Si      -2.70415546       1.29839457       6.88197478
Si       2.03596256       0.09567224       3.45356656
Si      -2.45065671       3.79616263       5.90618781
Si      -2.63121835      -1.29999551       6.69832656
Si      -0.90700216       6.53767464      -0.73289677
Si       1.07311003       2.14552209       4.99026327
Si       1.15365193       6.41220438      -1.21899321
Si      -0.38333741      -0.93946958       3.13242984
Si       2.30783903      -3.68123941       6.97128053
Si       0.44987316       2.05812671       2.98128051
Si      -2.81705042       3.07914945       8.06079176
Si      -1.48147870       3.78918546       3.38130263
Si      -1.40692683      -1.03107640       8.59452293
22
Lattice="5.277109457016668 -0.6123416402796302 -1.4408926558396395 -2.192812060616815 9.866757762554757 -1.5638834392974301 -4.249185778556426 -4.149046058910466 11.759421304576524" Properties=species:S:1:pos:R:3 unique_starting_index=18 config_type=initial n_minim_iter=4 stress="0.003081009420373767 -0.004007545902208592 -0.0063713119074324445 -0.004007545902208592 0.003252149988660832 0.0030082862250407714 -0.0063713119074324445 0.0030082862250407714 -0.00148457861188541" pbc="T T T"
Si       0.54796138       8.16746875      -0.03393000
Si      -0.65336812       0.22761424       6.27585686
Si      -3.88550561      -3.10836099      10.63096302
Si       0.16546774      -1.96160860       9.66523034
Si      -4.82708086       0.63011673      10.05964099
Si       3.49138649       2.06192948       0.08073046
Si       2.33689982       0.13131674       0.18058666
Si      -1.78640439       1.17233850       8.91911131
Si      -1.59388889      -3.11330621      10.04636602
Si      -2.70282149       1.33672076       6.88381111
Si       2.00540804       0.09290039       3.43870418
Si      -2.45634589       3.83716047       5.91510488
Si      -2.63762638      -1.30015996       6.69340270
Si      -0.92322372       6.58356324      -0.71515920
Si       1.04397243       2.15753617       4.98920266
Si       1.14726900       6.46242637      -1.21432446
Si      -0.38888950      -0.93813978       3.12769486
Si       2.28487128      -3.70356924       6.95550759
Si       0.42601697       2.07907455       2.97177913
Si      -2.81641730       3.12529957       8.07889174
Si      -1.48385901       3.82887282       3.39510244
Si      -1.41496186      -1.01056749       8.59685832
22
Lattice="5.235369834043065 -0.5951459231030897 -1.4201903929201902 -2.1600479986385084 9.877152968642967 -1.6048091138509366 -4.186306055451872 -4.199814702935391 11.775315444326159" Properties=species:S:1:pos:R:3 unique_starting_index=18 config_type=initial n_minim_iter=5 stress="-0.02691397687111541 -0.004228576693608316 -0.0001802766332430616 -0.004228576693608316 -0.005003499408312868 9.188783769346915e-06 -0.0001802766332430616 9.188783769346915e-06 0.006865358524643864" pbc="T T T"
Si       0.57336209       8.18563406      -0.06105265
Si      -0.62349841       0.20499245       6.28145637
Si      -3.81981105      -3.15202819      10.64420167
Si       0.20072591      -1.99246849       9.70240207
Si      -4.76375554       0.58326493      10.05544936
Si       3.48005799       2.06856623       0.08174598
Si       2.31747325       0.13503380       0.18754067
Si      -1.74256563       1.14175771       8.91999791
Si      -1.55734453      -3.14724831      10.07142889
Si      -2.65196257       1.32290277       6.87936723
Si       1.99719163       0.08259196       3.44701896
Si      -2.40741710       3.81403140       5.90453771
Si      -2.60378860      -1.33542683       6.69471157
Si      -0.90587375       6.59210037      -0.73426888
Si       1.06006555       2.13790124       4.99926294
Si       1.15625611       6.48376390      -1.23325523
Si      -0.37775737      -0.94818072       3.13283969
Si       2.28877836      -3.72554722       6.98957791
Si       0.43168035       2.07422647       2.96282127
Si      -2.75064637       3.09703572       8.07939912
Si      -1.44712075       3.82121635       3.38841588
Si      -1.37460155      -1.03327870       8.61480069
22
Lattice="5.248259342450726 -0.5971456507993689 -1.3729581076571675 -2.173596459400303 9.886882110835161 -1.5788496737133455 -4.145857892162999 -4.188326337077644 11.568960162621766" Properties=species:S:1:pos:R:3 unique_starting_index=18 config_type=initial n_minim_iter=6 stress="-0.02607290118175668 -0.001389416013798549 0.0070771911078571685 -0.001389416013798549 -0.022873505090836757 0.0005859121259672036 0.0070771911078571685 0.0005859121259672036 -0.017013804467977286" pbc="T T T"
Si       0.58944584       8.20669050      -0.05703478
Si      -0.59361610       0.20987246       6.17936340
Si      -3.77059687      -3.13771177      10.45912257
Si       0.24367828      -1.98509535       9.57387589
Si      -4.73647708       0.58978829       9.87498613
Si       3.50451936       2.06479354       0.09022768
Si       2.31846262       0.13199001       0.19203002
Si      -1.71673366       1.15230496       8.76727097
Si      -1.51647623      -3.12421109       9.91084831
Si      -2.62148647       1.35453573       6.76080094
Si       2.00757228       0.07995341       3.39714805
Si      -2.39050482       3.81871303       5.80838720
Si      -2.59152579      -1.33971171       6.57161262
Si      -0.90911782       6.60798025      -0.70673959
Si       1.08914330       2.13703561       4.93083556
Si       1.16248451       6.50333879      -1.20347188
Si      -0.36364111      -0.94251494       3.07958200
Si       2.33360840      -3.72381738       6.89189296
Si       0.43694815       2.08217571       2.91104585
Si      -2.70792197       3.10818027       7.95407094
Si      -1.42729394       3.83427045       3.34150810
Si      -1.34427654      -1.01592501       8.48623506
22
Lattice="5.2551557733217855 -0.6184644012689225 -1.373498014022623 -2.2007048461333265 9.988098325600744 -1.56624445890736 -4.137636619155297 -4.200837897335135 11.570871824075159" Properties=species:S:1:pos:R:3 unique_starting_index=18 config_type=initial n_minim_iter=7 stress="-0.017621149593096422 -0.014334818057899445 0.009020905302645153 -0.014334818057899445 0.007103602829714355 0.01287082068664234 0.009020905302645153 0.01287082068664234 0.00021512857730602344" pbc="T T T"
Si       0.57652219       8.29432529      -0.05158556
Si      -0.59262716       0.22020872       6.18231138
Si      -3.75607748      -3.13967876      10.46224158
Si       0.24540128      -1.99296759       9.59105688
Si      -4.74032996       0.61733059       9.87921109
Si       3.51002273       2.07200491       0.08858739
Si       2.31417414       0.12294816       0.19372280
Si      -1.72488865       1.17913051       8.77041257
Si      -1.50906725      -3.12402636       9.91267454
Si      -2.62005495       1.39560870       6.76502801
Si       2.00091560       0.07596638       3.39644780
Si      -2.40563135       3.86529761       5.81970954
Si      -2.59639880      -1.34434660       6.57038790
Si      -0.92397497       6.68226847      -0.68951320
Si       1.08652370       2.15937248       4.93836896
Si       1.14883308       6.57137409      -1.19631262
Si      -0.35996671      -0.94450717       3.07926176
Si       2.34934072      -3.75823424       6.89419882
Si       0.42539182       2.10709007       2.90849366
Si      -2.70887419       3.15712515       7.96949704
Si      -1.43226160       3.88391806       3.35424958
Si      -1.34733547      -1.00681773       8.50004352
22
Lattice="5.258429363574492 -0.601384337221569 -1.412158194045015 -2.1587503881662378 10.022325586215972 -1.569938638069908 -4.236072821799385 -4.257311693203279 11.58741376119049" Properties=species:S:1:pos:R:3 unique_starting_index=18 config_type=initial n_minim_iter=8 stress="-0.014837020791417138 -0.0018840189662056135 -0.002798070763382054 -0.0018840189662056135 0.00991959983853387 0.00816599537261878 -0.002798070763382054 0.00816599537261878 0.00039762030828543234" pbc="T T T"
Si       0.60429774       8.33448524      -0.08488621
Si      -0.63967082       0.20074187       6.16933274
Si      -3.83418295      -3.18473162      10.47581293
Si       0.15984575      -2.02289716       9.57955257
Si      -4.80976181       0.57640695       9.89014413
Si       3.51754044       2.08552012       0.04978233
Si       2.30361505       0.12413726       0.17556185
Si      -1.79025456       1.15378203       8.75670945
Si      -1.59919605      -3.15401147       9.90667157
Si      -2.66136388       1.38759961       6.76306526
Si       1.96263813       0.06906551       3.36813663
Si      -2.44377042       3.85080075       5.81758801
Si      -2.65586298      -1.38205645       6.57570961
Si      -0.89843530       6.71102779      -0.69110754
Si       1.05395525       2.15481444       4.91193090
Si       1.17489006       6.61062078      -1.22145753
Si      -0.38448926      -0.95515654       3.07600281
Si       2.28508033      -3.78437945       6.86900215
Si       0.40070416       2.10962667       2.88520463
Si      -2.75314281       3.13839591       7.96727565
Si      -1.44117654       3.88848619       3.35241282
Si      -1.42206998      -1.03471687       8.50305485
22
Lattice="5.2946231198265385 -0.6167185930304319 -1.4252721824606556 -2.2144788654191228 10.001097475676126 -1.6302968872544334 -4.277736137878216 -4.299943570522368 11.618633400091303" Properties=species:S:1:pos:R:3 unique_starting_index=18 config_type=initial n_minim_iter=9 stress="-0.005932470181250923 -0.008038945143030959 -0.0004025965129124691 -0.008038945143030959 -0.002682831104523111 -0.009331421600841945 -0.0004025965129124691 -0.009331421600841945 -8.437695996864397e-05" pbc="T T T"
Si       0.57159746       8.30805609      -0.15893039
Si      -0.66458861       0.15206312       6.15994436
Si      -3.85823536      -3.21809646      10.49891409
Si       0.13629236      -2.08046016       9.59220096
Si      -4.87384638       0.52154421       9.89020604
Si       3.53655166       2.04763407       0.01893845
Si       2.30392196       0.10214219       0.16484410
Si      -1.83133594       1.08752243       8.74245795
Si      -1.64057632      -3.19091874       9.92975251
Si      -2.69048056       1.35728847       6.74521360
Si       1.94505244       0.02604340       3.35292976
Si      -2.50745057       3.79033076       5.79815937
Si      -2.69747512      -1.42527983       6.58185099
Si      -0.93094705       6.69429086      -0.72702454
Si       1.03238595       2.10554914       4.88744455
Si       1.14956938       6.59871495      -1.27258158
Si      -0.38512043      -0.96887113       3.07889468
Si       2.29577078      -3.83329908       6.87707588
Si       0.37139850       2.07833260       2.85282013
Si      -2.79955098       3.07964231       7.95079419
Si      -1.46964213       3.85983612       3.33426972
Si      -1.46032387      -1.08016251       8.52457338
22
Lattice="5.318207415996925 -0.5774151098066864 -1.4388666121277396 -2.149102560337036 9.905954015393295 -1.5873605074591957 -4.349947731938811 -4.255586608066148 11.616220199890574" Properties=species:S:1:pos:R:3 unique_starting_index=18 config_type=initial n_minim_iter=10 stress="0.010620555691520117 0.011787941975388586 0.0021163389702979893 0.011787941975388586 -0.00789854438113915 -0.0013029846250175543 0.0021163389702979893 -0.0013029846250175543 0.004822882893080372" pbc="T T T"
Si       0.64056481       8.28255259      -0.14894403
Si      -0.67634002       0.15827673       6.16074785
Si      -3.88636109      -3.16612781      10.49765290
Si       0.10055664      -2.01830901       9.60191171
Si      -4.91062615       0.51613527       9.90714955
Si       3.58682916       2.04286432       0.01963233
Si       2.29662370       0.10730432       0.15527350
Si      -1.83801136       1.08477839       8.75173882
Si      -1.71444970      -3.12054609       9.94655635
Si      -2.67909316       1.36583371       6.73288686
Si       1.91967463       0.04106208       3.34589893
Si      -2.51679834       3.74554810       5.82954584
Si      -2.75314636      -1.43845347       6.57624996
Si      -0.86985259       6.63597241      -0.69118107
Si       1.03984909       2.11503246       4.89625965
Si       1.19547510       6.57454037      -1.25582994
Si      -0.38625052      -0.94876132       3.07493143
Si       2.26913337      -3.76571413       6.85045721
Si       0.36593413       2.07907620       2.84374249
Si      -2.78528968       3.07365475       7.98554836
Si      -1.43561549       3.84423012       3.36823982
Si      -1.50316307      -1.04459689       8.56488639
22
Lattice="5.32482918300199 -0.5515808558604816 -1.4463121017074156 -2.1106396283111706 9.926150276954946 -1.6237417030305399 -4.427438203552432 -4.356942735731085 11.508071792008888" Properties=species:S:1:pos:R:3 unique_starting_index=18 config_type=initial n_minim_iter=11 stress="0.005764262017686794 0.015475216745433644 -0.006138648859458632 0.015475216745433644 -0.025649387082485074 -0.004908755245957842 -0.006138648859458632 -0.004908755245957842 -0.015249558683480999" pbc="T T T"
Si       0.67918298       8.36600776      -0.24478397
Si      -0.70809912       0.09037367       6.06901570
Si      -3.89141427      -3.22382577      10.39052801
Si       0.03046626      -2.08465335       9.50983100
Si      -4.97626061       0.42843928       9.79688883
Si       3.62712034       2.02446096      -0.01687682
Si       2.26125012       0.08874458       0.13421728
Si      -1.87345792       0.99276634       8.62050416
Si      -1.82331998      -3.15353818       9.86720500
Si      -2.66228799       1.33652325       6.59770449
Si       1.84775714      -0.00057002       3.27732740
Si      -2.54984940       3.67428318       5.74530923
Si      -2.83144340      -1.54869734       6.49654322
Si      -0.81609386       6.64182806      -0.71085147
Si       0.98825018       2.07203681       4.80005826
Si       1.21268439       6.62273826      -1.31214490
Si      -0.38995838      -0.96609510       3.03505847
Si       2.22577236      -3.82137467       6.74783782
Si       0.32635475       2.06589318       2.76174097
Si      -2.78271730       3.02235752       7.88937592
Si      -1.40821080       3.84171835       3.32693063
Si      -1.57452377      -1.09503788       8.52121811
22
Lattice="5.31679637727206 -0.5540845939098313 -1.427596336974065 -2.120940802671231 9.997324765329072 -1.6695175613770363 -4.389639622852005 -4.4286798827846345 11.498073264336641" Properties=species:S:1:pos:R:3 unique_starting_index=18 config_type=initial n_minim_iter=12 stress="-0.006496055865667801 0.008871695138245003 0.0013142011675648106 0.008871695138245003 -0.0052766083441472735 -0.007773678810453365 0.0013142011675648106 -0.007773678810453365 -0.008544150437358084" pbc="T T T"
Si       0.67388033       8.43962974      -0.28525285
Si      -0.69112726       0.05793497       6.05657786
Si      -3.83788571      -3.27130862      10.37767831
Si       0.05436874      -2.13889518       9.51210774
Si      -4.95066367       0.39626637       9.77137641
Si       3.63478479       2.02375036      -0.00780186
Si       2.24903721       0.08330060       0.13583872
Si      -1.84637202       0.96666395       8.59565057
Si      -1.80804300      -3.19889417       9.86991994
Si      -2.63435941       1.33541411       6.56092144
Si       1.83856617      -0.02327815       3.27525587
Si      -2.54055091       3.66569910       5.71932590
Si      -2.82131990      -1.60004236       6.48345634
Si      -0.81651447       6.68118948      -0.73642619
Si       0.99406406       2.05453371       4.78116555
Si       1.20524613       6.67280764      -1.34507883
Si      -0.37690841      -0.98296645       3.03220191
Si       2.24442881      -3.87833495       6.74801351
Si       0.32428007       2.06729899       2.74772980
Si      -2.74945136       3.00952461       7.86026368
Si      -1.38984302       3.85984010       3.31031382
Si      -1.55625385      -1.14304888       8.52777266
22
Lattice="5.374114994627736 -0.5927802083361012 -1.4681999572062903 -2.2162682871712462 9.910395201752602 -1.689289142639144 -4.438888393852815 -4.358210460958239 11.682314566736252" Properties=species:S:1:pos:R:3 unique_starting_index=18 config_type=initial n_minim_iter=13 stress="0.04149826942315356 0.004934545017682312 -0.00012263962898320093 0.004934545017682312 -0.0012627238073140185 -0.012695440754059633 -0.00012263962898320093 -0.012695440754059633 0.024216199231292507" pbc="T T T"
Si       0.61170828       8.35393472      -0.29490940
Si      -0.72370156       0.04480288       6.14858296
Si      -3.89126249      -3.19602915      10.54975951
Si       0.02646929      -2.14001261       9.64664798
Si      -5.05268446       0.41986464       9.93947757
Si       3.66552867       1.96005705       0.01235365
Si       2.25965213       0.07277755       0.11986750
Si      -1.89857525       0.97283846       8.72271437
Si      -1.83031039      -3.14371486      10.01570756
Si      -2.69952005       1.35331676       6.64387507
Si       1.82849394      -0.04713964       3.31676132
Si      -2.61661702       3.63636179       5.81732124
Si      -2.86516387      -1.58236516       6.59314079
Si      -0.87543667       6.60817575      -0.74140094
Si       0.96295622       1.99560455       4.83507283
Si       1.17629396       6.59203739      -1.38719059
Si      -0.38861515      -0.97377518       3.07680115
Si       2.26478774      -3.86506708       6.80801326
Si       0.29743047       2.03792549       2.79728785
Si      -2.82029331       2.99142154       7.97763290
Si      -1.43563658       3.83477384       3.37094962
Si      -1.59614426      -1.14184568       8.67076945
22
Lattice="5.37295458487048 -0.6155697350347242 -1.4696999585951065 -2.2510006799394406 9.947453565366459 -1.6839762732862593 -4.432142484631052 -4.354955132963785 11.650209843777597" Properties=species:S:1:pos:R:3 unique_starting_index=18 config_type=initial n_minim_iter=14 stress="0.035768666369219305 0.0018664698934065473 0.001610905325857475 0.0018664698934065473 0.01842517658019231 0.001251825659283519 0.001610905325857475 0.001251825659283519 0.031177701349056626" pbc="T T T"
Si       0.58462363       8.36716269      -0.30218025
Si      -0.73169555       0.03715711       6.13123614
Si      -3.89205686      -3.17169485      10.52538872
Si       0.02511055      -2.15593846       9.60978812
Si      -5.07492921       0.42995628       9.91684369
Si       3.66877897       1.94132151       0.04250850
Si       2.25139343       0.07970338       0.10466443
Si      -1.90884499       0.99599492       8.69016828
Si      -1.83628627      -3.13737873       9.97348446
Si      -2.71190006       1.37116876       6.60365827
Si       1.81310239      -0.05779258       3.30445545
Si      -2.63720684       3.65160384       5.80801790
Si      -2.86724201      -1.58860487       6.58165205
Si      -0.89435146       6.63130406      -0.73266074
Si       0.94520721       1.98110176       4.80325331
Si       1.15327841       6.61789556      -1.39137396
Si      -0.39505275      -0.97657902       3.06647695
Si       2.27116003      -3.88651680       6.76512014
Si       0.28514950       2.04163029       2.79896801
Si      -2.82895035       3.01780864       7.95551487
Si      -1.44277592       3.85935479       3.36900890
Si      -1.60284781      -1.15327915       8.65218099
22
Lattice="5.3815473025871725 -0.634677549723005 -1.484733115815655 -2.283794282158499 9.976438035471315 -1.6924836420574139 -4.475381188028743 -4.3813298127211695 11.586481905482295" Properties=species:S:1:pos:R:3 unique_starting_index=18 config_type=initial n_minim_iter=15 stress="0.01368400205493332 -0.0005124028653280643 0.0022378602810932437 -0.0005124028653280643 0.01388602601030152 0.0029498363999674107 0.0022378602810932437 0.0029498363999674107 0.015130337928304585" pbc="T T T"
Si       0.55816929       8.38673530      -0.34483159
Si      -0.76554492       0.00345758       6.08136567
Si      -3.92908520      -3.16503359      10.46897468
Si      -0.01477314      -2.19983266       9.53178915
Si      -5.13908639       0.40102732       9.85497764
Si       3.67712943       1.90410709       0.04098903
Si       2.23918862       0.08551391       0.07406603
Si      -1.95341895       0.98729712       8.61031782
Si      -1.88856639      -3.14656886       9.90994234
Si      -2.74382808       1.37777029       6.53554588
Si       1.77373805      -0.08542010       3.26114294
Si      -2.68747835       3.63672561       5.77119989
Si      -2.90513753      -1.62336900       6.54934496
Si      -0.90917510       6.65513153      -0.73159039
Si       0.90315602       1.94119424       4.74513643
Si       1.13161532       6.64206102      -1.42064015
Si      -0.41452553      -0.98750946       3.04252066
Si       2.25383027      -3.92819152       6.68303167
Si       0.24803450       2.03642686       2.75533617
Si      -2.85978590       3.01016972       7.88770699
Si      -1.45801650       3.87415269       3.34985043
Si      -1.65830484      -1.19038400       8.60811652
22
Lattice="5.416913735528592 -0.6635363562230351 -1.4892078582481771 -2.3404056353160394 10.05341173822877 -1.692676275890944 -4.544418807520222 -4.431222382102442 11.396616112054812" Properties=species:S:1:pos:R:3 unique_starting_index=18 config_type=initial n_minim_iter=16 stress="0.008928392738738227 -0.009541623813504601 -0.017379850876129404 -0.009541623813504601 0.0011919294206583764 -0.0018925610582809335 -0.017379850876129404 -0.0018925610582809335 -0.023535021537283814" pbc="T T T"
Si       0.51694450       8.45441524      -0.40114539
Si      -0.80991382      -0.04510043       5.96104242
Si      -4.00202632      -3.15744359      10.30021524
Si      -0.05623821      -2.26932500       9.34181612
Si      -5.25068452       0.37589567       9.68880256
Si       3.71012624       1.85705831       0.04396792
Si       2.23121951       0.08973885       0.03583587
Si      -2.01292147       0.98574728       8.42238993
Si      -1.95124531      -3.16006293       9.72421268
Si      -2.79332897       1.38674638       6.37898550
Si       1.72915456      -0.12397811       3.17368234
Si      -2.77013008       3.62620115       5.67756385
Si      -2.96435178      -1.67707171       6.44837801
Si      -0.92338598       6.69865977      -0.73369789
Si       0.86702325       1.89204848       4.63298898
Si       1.10406563       6.69557789      -1.45221797
Si      -0.43997905      -1.00755637       2.98356596
Si       2.24928569      -4.00047105       6.51625419
Si       0.19836499       2.04119377       2.66383117
Si      -2.90672725       3.02179013       7.72069054
Si      -1.47893315       3.91410111       3.29603528
Si      -1.73522395      -1.24572343       8.47186615
22
Lattice="5.434643005756721 -0.6668461873909474 -1.4845192446882034 -2.3511479522307583 10.05701682820597 -1.6803524932262575 -4.566930410544158 -4.4305845747056 11.313363936798758" Properties=species:S:1:pos:R:3 unique_starting_index=18 config_type=initial n_minim_iter=17 stress="0.002582190323695178 -0.0074155997960884835 -0.009976500400591984 -0.0074155997960884835 -0.003272323929019463 0.005917676472153065 -0.009976500400591984 0.005917676472153065 -0.03326228287379855" pbc="T T T"
Si       0.51813027       8.47397521      -0.41651072
Si      -0.81878247      -0.06345282       5.91521114
Si      -4.01657488      -3.12483137      10.22702677
Si      -0.06406025      -2.27760542       9.27245936
Si      -5.29299492       0.36890030       9.62343984
Si       3.74294454       1.83138994       0.06007788
Si       2.22374003       0.09377128       0.02224865
Si      -2.01809838       0.99517717       8.34710973
Si      -1.97512366      -3.12902567       9.64838087
Si      -2.79140747       1.40042590       6.31523121
Si       1.70428285      -0.13890062       3.13582326
Si      -2.79424922       3.61356300       5.65100453
Si      -2.99091579      -1.70047309       6.40413547
Si      -0.91737610       6.69731134      -0.72174012
Si       0.86116297       1.86924822       4.59408065
Si       1.10431465       6.71280482      -1.45719257
Si      -0.44735024      -1.00945173       2.95883378
Si       2.25563900      -4.01011348       6.44273855
Si       0.17949785       2.04653736       2.62896862
Si      -2.90030131       3.03043685       7.66209380
Si      -1.46726587       3.93214970       3.28896109
Si      -1.76091671      -1.25632426       8.43062288
22
Lattice="5.463744148770041 -0.6602178956920953 -1.4988169457546014 -2.3582687160351257 10.107806025437265 -1.745621109834851 -4.646700201114618 -4.548657632478395 11.275492461729247" Properties=species:S:1:pos:R:3 unique_starting_index=18 config_type=initial n_minim_iter=18 stress="-0.01680146192357253 0.0088281101283412 -0.010665986434537556 0.0088281101283412 -0.009430265372261784 0.002492965462285108 -0.010665986434537556 0.002492965462285108 -0.01585350821048079" pbc="T T T"
Si       0.51823552       8.54238287      -0.52731699
Si      -0.85764268      -0.16000339       5.86667346
Si      -4.08021347      -3.15993164      10.18605490
Si      -0.11745369      -2.38618610       9.21573360
Si      -5.40753837       0.26510062       9.57279215
Si       3.80144447       1.78144541       0.05445245
Si       2.20403354       0.10744274      -0.02319707
Si      -2.05376246       0.93965012       8.24649687
Si      -2.04872962      -3.15673082       9.60596288
Si      -2.80410110       1.36619670       6.22578806
Si       1.63631147      -0.20062914       3.07527679
Si      -2.85670822       3.55826798       5.58573522
Si      -3.06362936      -1.81277676       6.38348029
Si      -0.89139057       6.71848391      -0.75918787
Si       0.83882318       1.77947910       4.52808160
Si       1.10612096       6.78411642      -1.53881487
Si      -0.47245401      -1.04676683       2.94026645
Si       2.23623073      -4.10424003       6.36340723
Si       0.12894534       2.04329465       2.55720083
Si      -2.91277043       2.97478676       7.60903026
Si      -1.44935126       3.95116626       3.27012252
Si      -1.84395809      -1.36828987       8.42361403
22
Lattice="5.47349353162969 -0.6712036503853193 -1.4221054441650667 -2.402767707923806 10.142643883470722 -1.76359692716387 -4.509466309674978 -4.548560384733472 11.175365186446815" Properties=species:S:1:pos:R:3 unique_starting_index=18 config_type=initial n_minim_iter=19 stress="0.002943995164870696 0.007312595772229803 0.010433162978468281 0.007312595772229803 -0.007649934302356745 0.0023569033122811086 0.010433162978468281 0.0023569033122811086 0.02314670886896843" pbc="T T T"
Si       0.48136925       8.58151978      -0.50698905
Si      -0.78097527      -0.16793204       5.84146647
Si      -3.97510192      -3.14379862      10.08999476
Si       0.01877984      -2.36652730       9.16834147
Si      -5.31700251       0.27512040       9.47642399
Si       3.79913627       1.78707132       0.09335573
Si       2.22066353       0.11441338       0.00069135
Si      -1.92484413       0.95267855       8.19057874
Si      -1.92087602      -3.13907970       9.53692500
Si      -2.72605803       1.36650863       6.19687704
Si       1.68629769      -0.21161157       3.07071242
Si      -2.79961908       3.60022160       5.50980957
Si      -2.98235867      -1.80180566       6.32975454
Si      -0.88633816       6.73828091      -0.77484611
Si       0.93549204       1.76707727       4.54274580
Si       1.06735387       6.79349719      -1.51729361
Si      -0.44718057      -1.06198587       2.93192691
Si       2.34852367      -4.12787805       6.37654472
Si       0.18732292       2.06039177       2.55639351
Si      -2.82608363       2.97710435       7.56722622
Si      -1.40717392       3.97770485       3.25707574
Si      -1.73874536      -1.37446999       8.36835740
22
Lattice="5.471555113203705 -0.6654906268746489 -1.411831153082135 -2.398194325142612 10.196595411461049 -1.800673783206482 -4.504659458311966 -4.619462155446449 11.147799529753284" Properties=species:S:1:pos:R:3 unique_starting_index=18 config_type=initial n_minim_iter=20 stress="-0.012672022463816813 0.002832985548827158 0.004195007157985868 0.002832985548827158 0.011456106590642268 -0.005796478966791505 0.004195007157985868 -0.005796478966791505 0.020734144953377717" pbc="T T T"
Si       0.48215057       8.62294726      -0.54108867
Si      -0.77840492      -0.19619598       5.81729628
Si      -3.96263841      -3.21165281      10.05324266
Si       0.01784483      -2.40144953       9.14183377
Si      -5.31546776       0.23882634       9.43665409
Si       3.79214065       1.80497663       0.07057214
Si       2.21979955       0.11072861       0.00812147
Si      -1.91638102       0.91283010       8.15425123
Si      -1.91441648      -3.19726584       9.51877631
Si      -2.71771397       1.33257097       6.16578437
Si       1.68980121      -0.22725749       3.05535879
Si      -2.80084634       3.59351950       5.47163586
Si      -2.97786272      -1.83254787       6.31021319
Si      -0.88344864       6.76937733      -0.79667989
Si       0.95324627       1.75587317       4.51844854
Si       1.07708627       6.83641350      -1.54474159
Si      -0.45403905      -1.08497697       2.92881370
Si       2.34742470      -4.17697360       6.37085826
Si       0.19597015       2.06295895       2.54149559
Si      -2.82703779       2.96409917       7.52394920
Si      -1.40418843       3.98116356       3.22900717
Si      -1.73351257      -1.40726572       8.32975448
22
Lattice="5.508763214045671 -0.6861595479791144 -1.389281789994113 -2.462042746311964 10.14640562352221 -1.8046391927744785 -4.504019264198935 -4.595667454670104 11.00763786847394" Properties=species:S:1:pos:R:3 unique_starting_index=18 config_type=initial n_minim_iter=21 stress="0.0013498084631555969 -0.01645520120403652 0.00018011832491346863 -0.01645520120403652 -0.006474661354910236 0.009795396456564126 0.00018011832491346863 0.009795396456564126 0.0006109653905181621" pbc="T T T"
Si       0.44013187       8.58367840      -0.56289581
Si      -0.78109015      -0.23035089       5.73763165
Si      -3.95650481      -3.17933341       9.91034110
Si       0.03594217      -2.38756984       9.02478822
Si      -5.37331225       0.23326702       9.31192634
Si       3.82708466       1.77062198       0.07124461
Si       2.22157505       0.10218886       0.00777291
Si      -1.90778731       0.88718100       8.04049586
Si      -1.92101795      -3.16435648       9.39107511
Si      -2.71372699       1.30302285       6.06135706
Si       1.69012646      -0.25523121       3.00809300
Si      -2.84680679       3.56936677       5.38749861
Si      -2.99079145      -1.82792244       6.23123164
Si      -0.91201954       6.72922562      -0.78156706
Si       0.97378621       1.70555515       4.45670435
Si       1.07279159       6.80652528      -1.57119333
Si      -0.47957148      -1.09869638       2.90339283
Si       2.38727198      -4.19474079       6.28644974
Si       0.18846688       2.05633572       2.50364685
Si      -2.85055306       2.94221892       7.41733956
Si      -1.41323152       3.96550473       3.19729794
Si      -1.73890803      -1.42352197       8.22598916
