14
Lattice="6.609006798345808 2.503262818461854 -0.9622066654108219 -0.42962942491206 7.054127560204195 0.9622058966006467 -4.101760665478584 -4.124334669506919 5.528697369540151" Properties=species:S:1:pos:R:3 unique_starting_index=10 config_type=initial n_minim_iter=1 energy=-2279.589159702539 free_energy=-2279.589159702539 pbc="T T T"
Si       2.61378919       4.91730747       3.72986818
Si      -0.69036005       0.27727264       1.79882844
Si       1.17108306       3.04138928       3.40388576
Si       4.37045324       7.74916926       2.12481041
Si      -0.82739376      -2.68413527       4.08207397
Si      -0.03049065       3.57697141       1.44662300
Si       0.61531237      -0.80821708       4.40805639
Si       1.08807344       5.66246517       1.12064026
Si       4.25369617       6.57901799      -0.00000053
Si      -2.52007491      -1.67800596       5.52869717
Si       1.20483050       6.83261644       3.24545120
Si      -2.30253646       1.40791534       3.24545164
Si       2.92956165       1.78156977       2.28324514
Si       2.95859445       4.57593710      -0.00000037
14
Lattice="6.609301311894105 2.503162158953458 -0.9620759327150444 -0.42984208629956583 7.054354817103678 0.9620751638946856 -4.101694301942708 -4.12446733681249 5.528880890408554" Properties=species:S:1:pos:R:3 unique_starting_index=10 config_type=initial n_minim_iter=2 stress="0.00011073866457173931 -4.635012637911307e-05 4.7308878907882795e-05 -4.635012637911307e-05 6.901871080856765e-05 -3.0587779087828306e-05 4.7308878907882795e-05 -3.0587779087828306e-05 0.00013052553894649636" pbc="T T T"
Si       2.61393455       4.91733653       3.72999639
Si      -0.69032684       0.27728445       1.79888375
Si       1.17115164       3.04137849       3.40400134
Si       4.37056347       7.74922130       2.12487835
Si      -0.82723092      -2.68431871       4.08228640
Si      -0.03057654       3.57703855       1.44659408
Si       0.61555199      -0.80836068       4.40828146
Si       1.08799237       5.66261867       1.12059871
Si       4.25373834       6.57908321      -0.00000053
Si      -2.51996993      -1.67807890       5.52888069
Si       1.20481750       6.83275676       3.24547760
Si      -2.30262776       1.40793456       3.24547803
Si       2.92979126       1.78152916       2.28340227
Si       2.95860667       4.57595599      -0.00000037
14
Lattice="6.609428003085357 2.502269909735484 -0.96068625597048 -0.4307077263778367 7.054104164285358 0.9606854872420582 -4.100450480297184 -4.124461199461156 5.526170879576807" Properties=species:S:1:pos:R:3 unique_starting_index=10 config_type=initial n_minim_iter=3 stress="-6.514901726764669e-05 -2.5054566225556325e-05 0.00012500269737971857 -2.5054566225556325e-05 -8.770076068734558e-05 -8.082112182416433e-05 0.00012500269737971857 -8.082112182416433e-05 -0.0003280263588205737" pbc="T T T"
Si       2.61452140       4.91720153       3.72799988
Si      -0.68944697       0.27777034       1.79817025
Si       1.17068561       3.04076434       3.40225504
Si       4.37069956       7.74740752       2.12391465
Si      -0.82644291      -2.68547781       4.08091274
Si      -0.03145206       3.57614467       1.44525774
Si       0.61739288      -0.80904062       4.40665758
Si       1.08712169       5.66288157       1.11951258
Si       4.25281778       6.57765941      -0.00000053
Si      -2.51837971      -1.67753701       5.52617068
Si       1.20500347       6.83262968       3.24342775
Si      -2.30296980       1.40699082       3.24342819
Si       2.93107241       1.78200775       2.28274210
Si       2.95745656       4.57417717      -0.00000037
