6
Lattice="3.294182397026394 -1.3510151387044316 0.5056294971691462 -2.099595196724979 8.308091370825096 -0.42320768513588736 0.763798421573288 -1.6919794192246351 10.541528211945636" Properties=species:S:1:pos:R:3 unique_starting_index=56 config_type=initial n_minim_iter=1 energy=-979.2034904912948 free_energy=-979.2034904912948 pbc="T T T"
Si      -0.35616857       4.29098346       9.16496849
Si       0.34986380       5.27406515      -0.06124135
Si      -1.42784682       6.18231045       0.77863221
Si       1.25290541       3.20223180       8.40022594
Si       2.59358195       1.71769799       7.96465426
Si      -0.18365547       4.92834263       1.95744910
6
Lattice="3.251091505688988 -1.3550062934721858 0.5088771618487328 -2.069876703133656 8.335449448469712 -0.4330901150199598 0.7631081503397567 -1.7087758659914798 10.517117395725867" Properties=species:S:1:pos:R:3 unique_starting_index=56 config_type=initial n_minim_iter=2 stress="-0.018339804769373642 0.013525949861640643 -0.0017185098161565555 0.013525949861640643 -0.013289104675870102 0.0011275867075607416 -0.0017185098161565555 0.0011275867075607416 -0.009487063499388756" pbc="T T T"
Si      -0.34302196       4.29622584       9.14245258
Si       0.34263608       5.29306519      -0.06554212
Si      -1.40339009       6.20016925       0.76221338
Si       1.24125611       3.20572960       8.37448074
Si       2.57264974       1.71340648       7.94431419
Si      -0.17622189       4.94208289       1.94898455
6
Lattice="3.2502226633915274 -1.402619515981829 0.5210780259004384 -2.134213925128626 8.464788908194308 -0.4572899949051081 0.7991990041440031 -1.760646925729908 10.55577076276956" Properties=species:S:1:pos:R:3 unique_starting_index=56 config_type=initial n_minim_iter=3 stress="-0.0007743872803854443 0.0012581799314422162 0.007526625853776992 0.0012581799314422162 0.0014048466024532994 0.0020869665523405726 0.007526625853776992 0.0020869665523405726 0.0014461837524354394" pbc="T T T"
Si      -0.36116801       4.33922585       9.17477510
Si       0.28647725       5.36247496      -0.07506636
Si      -1.44220377       6.29089567       0.73335498
Si       1.22009144       3.22326658       8.39238734
Si       2.57624303       1.69046579       7.96916912
Si      -0.21126951       5.00349381       1.95098949
6
Lattice="3.248376012115754 -1.4167112975705578 0.5029836504035288 -2.155630292365615 8.488117009611663 -0.46416236288850543 0.7364183168716066 -1.792394584019435 10.547087790779795" Properties=species:S:1:pos:R:3 unique_starting_index=56 config_type=initial n_minim_iter=4 stress="0.0021183854993387856 -0.0008059113335360488 -0.0029076577876659612 -0.0008059113335360488 0.0006965048528353098 2.371922140487272e-05 -0.0029076577876659612 2.371922140487272e-05 -0.004750957656839236" pbc="T T T"
Si      -0.43755677       4.32426418       9.15918595
Si       0.26508964       5.37164667      -0.09176613
Si      -1.45900758       6.30252049       0.72245106
Si       1.15561339       3.20692244       8.37146368
Si       2.52251286       1.66553375       7.94314199
Si      -0.24061410       5.01043165       1.94196053
6
Lattice="3.244541888087205 -1.419161956454936 0.5074088042684124 -2.1576436165937563 8.489749279546265 -0.47473427387408 0.738848603995503 -1.8031616502731564 10.597151270845615" Properties=species:S:1:pos:R:3 unique_starting_index=56 config_type=initial n_minim_iter=5 stress="0.003221611659105644 -0.0006549804584929451 -0.0035182859327815555 -0.0006549804584929451 0.0010753451108107652 0.0006707266572705816 -0.0035182859327815555 0.0006707266572705816 0.011622425905051125" pbc="T T T"
Si      -0.44091252       4.31393557       9.19518036
Si       0.25691418       5.37023014      -0.09615864
Si      -1.45622701       6.29996316       0.71955510
Si       1.15556820       3.20017710       8.40820628
Si       2.52132427       1.65641662       7.97783988
Si      -0.24232533       5.01156299       1.94632079
6
Lattice="3.2461433642083035 -1.428673615929792 0.5238640998694104 -2.177672606234733 8.49542139105031 -0.5058003837597087 0.7816413236791766 -1.8339306537824522 10.613456265749857" Properties=species:S:1:pos:R:3 unique_starting_index=56 config_type=initial n_minim_iter=6 stress="0.008117491171925765 -0.0025713148836392316 0.002385638916669167 -0.0025713148836392316 -0.0006445108443396071 -0.0025497255314668563 0.002385638916669167 -0.0025497255314668563 0.0004960374892618066" pbc="T T T"
Si      -0.42670751       4.28479539       9.18672050
Si       0.23111367       5.36397161      -0.10632596
Si      -1.45688625       6.29397011       0.69677264
Si       1.18280255       3.18024893       8.41634970
Si       2.54749978       1.62878135       7.98733196
Si      -0.24455212       5.01502803       1.93151567
6
Lattice="3.234106907087812 -1.436595104783053 0.5183227433546346 -2.1807781083135023 8.526098942764254 -0.47913994133260535 0.7721258411787754 -1.80778538195666 10.638105927588194" Properties=species:S:1:pos:R:3 unique_starting_index=56 config_type=initial n_minim_iter=7 stress="0.0022483605515559273 0.00011866295783194102 0.0010397054506158913 0.00011866295783194102 0.0013991022739979924 0.0040931899672881165 0.0010397054506158913 0.0040931899672881165 0.001495690808598169" pbc="T T T"
Si      -0.45002651       4.32456117       9.23095302
Si       0.21158417       5.37133287      -0.08938762
Si      -1.45540081       6.31463813       0.71524436
Si       1.17409388       3.22535685       8.45812296
Si       2.53041012       1.65521980       8.00637092
Si      -0.24754819       5.05032088       1.95159713
6
Lattice="3.2154878629056753 -1.4538680177067365 0.5273354459342606 -2.193532300864766 8.558152652073767 -0.5244439536227844 0.7685457295301701 -1.8700812110891791 10.71255333992334" Properties=species:S:1:pos:R:3 unique_starting_index=56 config_type=initial n_minim_iter=8 stress="-0.006708885120929181 0.00043967986945628746 0.0035648483506843767 0.00043967986945628746 0.0030612414461161407 0.00012379859774023304 0.0035648483506843767 0.00012379859774023304 0.002900467454958893" pbc="T T T"
Si      -0.47745575       4.27651320       9.27060408
Si       0.18026012       5.36607863      -0.11975781
Si      -1.46770953       6.32991934       0.67831600
Si       1.16168539       3.20123208       8.50400359
Si       2.50714058       1.61392884       8.03993159
Si      -0.25141560       5.06945704       1.94146077
6
Lattice="3.206701339961985 -1.4540712994582135 0.5166376303533681 -2.1976279944122226 8.523692607255617 -0.547736552130127 0.7051800450157644 -1.9046917520154822 10.797279902405979" Properties=species:S:1:pos:R:3 unique_starting_index=56 config_type=initial n_minim_iter=9 stress="-0.01273727143657196 0.0023542115928689104 -0.0009389833935203149 0.0023542115928689104 -0.00018630931841168556 1.288043581484852e-05 -0.0009389833935203149 1.288043581484852e-05 0.0022511817348910006" pbc="T T T"
Si      -0.54633405       4.19311149       9.34048252
Si       0.15342097       5.30753356      -0.13401640
Si      -1.47909529       6.29644303       0.65255610
Si       1.11376814       3.17349437       8.55215530
Si       2.45449251       1.58400934       8.07408135
Si      -0.25540947       5.06815770       1.93627507
6
Lattice="3.208782884259528 -1.4400219027454633 0.5083341017885934 -2.1858027481864046 8.454349950662387 -0.5809033443745708 0.634596821232171 -1.9421268777235277 10.940122243885625" Properties=species:S:1:pos:R:3 unique_starting_index=56 config_type=initial n_minim_iter=10 stress="-0.006333819716097222 0.003672655576673293 -0.004142615685434851 0.003672655576673293 -0.0020249856563421603 0.0012692526511318164 -0.004142615685434851 0.0012692526511318164 0.008801016277847287" pbc="T T T"
Si      -0.60962152       4.05930130       9.46853462
Si       0.13139041       5.19396403      -0.17003605
Si      -1.47742929       6.23362162       0.62521558
Si       1.07961662       3.15145286       8.65578320
Si       2.41699735       1.56027050       8.13949783
Si      -0.23802422       5.07798759       1.93333998
6
Lattice="3.211483387156696 -1.4479390184551344 0.5023358974558174 -2.201914804789249 8.463547598337598 -0.5876382816731387 0.6073355746586646 -1.9589748051908074 10.978232579859055" Properties=species:S:1:pos:R:3 unique_starting_index=56 config_type=initial n_minim_iter=11 stress="-0.003368720219891744 -0.00023687737866317897 -0.005670171725900142 -0.00023687737866317897 -9.488490772372756e-05 0.0021030292869178946 -0.005670171725900142 0.0021030292869178946 0.008336805248654357" pbc="T T T"
Si      -0.65059824       4.02935960       9.50349806
Si       0.11287461       5.15735272      -0.17834938
Si      -1.49784899       6.24090503       0.62542343
Si       1.05260289       3.15561697       8.68321952
Si       2.39562428       1.55890718       8.15439554
Si      -0.24198824       5.10524734       1.92433860
6
Lattice="3.216791186887282 -1.4405973099294784 0.5076829838130703 -2.187362491233815 8.453772204928297 -0.6144489272524064 0.6039767608599914 -1.9885941797228286 11.015902164052816" Properties=species:S:1:pos:R:3 unique_starting_index=56 config_type=initial n_minim_iter=12 stress="-0.00037526087992529076 0.001221414628353233 -0.0012196104385753825 0.001221414628353233 -0.002703643406773751 3.972262046211173e-05 -0.0012196104385753825 3.972262046211173e-05 0.005679440432195382" pbc="T T T"
Si      -0.65109574       3.98259103       9.52874619
Si       0.11926335       5.11503314      -0.19704262
Si      -1.48832840       6.23532448       0.60829052
Si       1.06963554       3.13870579       8.70333485
Si       2.40707258       1.55597071       8.16942122
Si      -0.22188599       5.11908097       1.90713833
6
Lattice="3.2193720829002923 -1.4492049699705478 0.51202664394037 -2.1813217609242965 8.511705146289035 -0.6547972852635805 0.587955975817039 -2.052133459753723 11.073764576606145" Properties=species:S:1:pos:R:3 unique_starting_index=56 config_type=initial n_minim_iter=13 stress="0.009612522304177844 -0.006138558525175737 -0.002174583537995453 -0.006138558525175737 0.0027537679765538368 0.0019132253486466824 -0.002174583537995453 0.0019132253486466824 0.006578326650331772" pbc="T T T"
Si      -0.67609515       3.94289283       9.56926100
Si       0.10559459       5.07356898      -0.23010126
Si      -1.47831012       6.28492062       0.58349674
Si       1.06354749       3.13691220       8.73718790
Si       2.41381998       1.56060370       8.18763674
Si      -0.20600507       5.18810070       1.87690218
6
Lattice="3.216453499989563 -1.4480954892588342 0.525151657807594 -2.1427009637866834 8.580567998475924 -0.7030505841239362 0.5987823017470798 -2.1204643937954306 11.086167448299106" Properties=species:S:1:pos:R:3 unique_starting_index=56 config_type=initial n_minim_iter=14 stress="0.010801525130452187 -0.0038625866777500734 0.005436384486367087 -0.0038625866777500734 0.0005895607456068072 -0.000865240710804034 0.005436384486367087 -0.000865240710804034 -0.0016853203360355708" pbc="T T T"
Si      -0.64576762       3.93281880       9.54888659
Si       0.10976663       5.09171411      -0.25625480
Si      -1.43214815       6.34079018       0.54980415
Si       1.09191245       3.12562059       8.73234040
Si       2.45052484       1.55908370       8.18015488
Si      -0.17319451       5.23428531       1.84169612
6
Lattice="3.192035580659149 -1.4369550161187277 0.5178916845860724 -2.0449104626350514 8.685622788540552 -0.7689344863535693 0.5068771579087541 -2.2364662951561933 11.149456774380798" Properties=species:S:1:pos:R:3 unique_starting_index=56 config_type=initial n_minim_iter=15 stress="-0.006626761166242134 0.004110240844265966 0.0008990285901076661 0.004110240844265966 -0.003891959529614158 -0.0028548969383581737 0.0008990285901076661 -0.0028548969383581737 0.001422886778997894" pbc="T T T"
Si      -0.66468026       3.90593622       9.56328504
Si       0.12291084       5.09929402      -0.29390263
Si      -1.35395543       6.43964334       0.48803820
Si       1.06542190       3.10261903       8.75559450
Si       2.42839021       1.56765486       8.17146873
Si      -0.11342201       5.31064251       1.79703981
6
Lattice="3.190116424608302 -1.4313532844630625 0.5113157974211205 -2.019582997856446 8.717309803670808 -0.743760987143766 0.5003821378597315 -2.2130327673882406 11.095644780075537" Properties=species:S:1:pos:R:3 unique_starting_index=56 config_type=initial n_minim_iter=16 stress="-0.011528014717889133 0.004713253960469542 0.00027442831175842085 0.004713253960469542 -0.0044896444602202535 -0.0025849602177131265 0.00027442831175842085 -0.0025849602177131265 -0.010217390311500924" pbc="T T T"
Si      -0.64142134       3.97033551       9.52295962
Si       0.14058561       5.13327397      -0.28002283
Si      -1.33392398       6.47878648       0.49979261
Si       1.06600068       3.12369652       8.72972220
Si       2.43591113       1.60576860       8.14038173
Si      -0.10228478       5.32096426       1.80765662
6
Lattice="3.192775082338043 -1.435726954942671 0.5075791486135124 -2.014451946877432 8.759721352300138 -0.7436453966499715 0.48223806601284425 -2.2241463779067216 11.124907464129928" Properties=species:S:1:pos:R:3 unique_starting_index=56 config_type=initial n_minim_iter=17 stress="0.002721557339429034 -0.0011797049660556423 0.0007761827473884348 -0.0011797049660556423 0.0016813355380141072 0.0007070965764406818 0.0007761827473884348 0.0007070965764406818 0.0001586015027860436" pbc="T T T"
Si      -0.65089142       3.99434014       9.54989327
Si       0.13051541       5.13398848      -0.27988070
Si      -1.32688264       6.51809797       0.49285511
Si       1.05345607       3.13490959       8.76554462
Si       2.43367136       1.62570769       8.14955505
Si      -0.09635984       5.35637940       1.81250584
6
Lattice="3.1963982508306117 -1.4360248537632079 0.5071656577179949 -2.0309518717425026 8.728267186384652 -0.7397857672827536 0.4869592021963002 -2.2133778815512506 11.120771433666235" Properties=species:S:1:pos:R:3 unique_starting_index=56 config_type=initial n_minim_iter=18 stress="0.0012067751248428763 -0.0007668082310413373 -0.0006263187601669487 -0.0007668082310413373 0.0007566507503008204 0.0007334453873346203 -0.0006263187601669487 0.0007334453873346203 0.00010778570435839694" pbc="T T T"
Si      -0.65229609       3.98883025       9.54705656
Si       0.13178062       5.13009298      -0.27733881
Si      -1.34392804       6.48432217       0.49684016
Si       1.04654586       3.11995953       8.75949032
Si       2.42741130       1.60987334       8.15083483
Si      -0.11066841       5.33100181       1.81695968
6
Lattice="3.1995250716837105 -1.4326141067201168 0.5089662577966001 -2.0242468684105823 8.72282997712807 -0.7564452853125352 0.48279865771125213 -2.2336506922510084 11.124559072271266" Properties=species:S:1:pos:R:3 unique_starting_index=56 config_type=initial n_minim_iter=19 stress="3.423848451647856e-05 -1.1136642025336188e-05 -0.0008439348841338556 -1.1136642025336188e-05 -0.0008761372428744396 -0.0001400437059548941 -0.0008439348841338556 -0.0001400437059548941 -0.0016584883821217744" pbc="T T T"
Si      -0.64313803       3.97827282       9.53797783
Si       0.13981368       5.12243497      -0.28950518
Si      -1.34220627       6.47241007       0.48696913
Si       1.04418479       3.09510143       8.75136719
Si       2.43054689       1.59841525       8.14909747
Si      -0.10616066       5.32936931       1.80528714
6
Lattice="3.2004646502592835 -1.4319461150664543 0.5109851140573907 -2.0085621486974983 8.745783073087273 -0.791917388929693 0.46468386632014275 -2.2853980636206837 11.145584735546596" Properties=species:S:1:pos:R:3 unique_starting_index=56 config_type=initial n_minim_iter=20 stress="0.001789892237355822 -0.0008848422507489949 -0.0005593181755124654 -0.0008848422507489949 -0.00016675211451361158 -0.0012171100467901373 -0.0005593181755124654 -0.0012171100467901373 0.00182330465056811" pbc="T T T"
Si      -0.63408404       3.97581667       9.52757262
Si       0.14748878       5.12578669      -0.31156604
Si      -1.33721614       6.47418741       0.46068469
Si       1.03217254       3.05349712       8.75168469
Si       2.42759207       1.57716134       8.14742076
Si      -0.09585630       5.34420077       1.78366091
6
Lattice="3.1997092730287147 -1.4321822373482065 0.5102618712661318 -2.0132073064694813 8.738097806141207 -0.7823265169118824 0.4684079444868411 -2.2712452541612875 11.143708541424685" Properties=species:S:1:pos:R:3 unique_starting_index=56 config_type=initial n_minim_iter=21 stress="-0.001161317938989211 0.0009741854189076789 -0.00039205057377407487 0.0009741854189076789 -0.0012823809514186007 0.000904262844511844 -0.00039205057377407487 0.000904262844511844 0.0020480527173546066" pbc="T T T"
Si      -0.63577847       3.98131996       9.53438458
Si       0.14291090       5.12522945      -0.30847665
Si      -1.34256617       6.46545139       0.46936214
Si       1.03466375       3.06244855       8.75514935
Si       2.42641579       1.58043390       8.15121508
Si      -0.09630834       5.34231237       1.78978486
