6
Lattice="3.3514851318042016 -0.7901810173569357 0.324632611163709 -1.8423934493240264 5.54686376837447 -0.34801806586537803 0.11876127665986536 -1.1721999940092356 10.569145366186081" Properties=species:S:1:pos:R:3 unique_starting_index=56 config_type=initial n_minim_iter=1 energy=-975.0972301566594 free_energy=-975.0972301566594 pbc="T T T"
Si      -0.49554480       3.69085239       8.38381844
Si       0.37376935       3.90192025      -0.15724029
Si      -1.37810380       4.41017192       1.18303945
Si       0.90994901       2.06220404       8.40543210
Si       2.32945338       0.47400967       8.33403594
Si      -0.06448807       2.72906304       1.95870063
6
Lattice="3.342944480356749 -0.7930698421210167 0.3195845786478111 -1.8284638144353556 5.611046725114101 -0.33107793410157843 0.11726551750469905 -1.1608321441405627 10.455214316881637" Properties=species:S:1:pos:R:3 unique_starting_index=56 config_type=initial n_minim_iter=2 stress="0.012801234065748379 -0.0032375250853611645 0.0015283641451691848 -0.0032375250853611645 -0.0003425643001859396 -0.0023221497256924544 0.0015283641451691848 -0.0023221497256924544 -0.0033083670322316336" pbc="T T T"
Si      -0.48510703       3.75288294       8.30627796
Si       0.37901163       3.94851333      -0.14655143
Si      -1.36786680       4.46333558       1.18147185
Si       0.91151769       2.11585334       8.32427003
Si       2.32556548       0.50138629       8.24694904
Si      -0.05808015       2.77017002       1.94186633
6
Lattice="3.3088479820198846 -0.7880310909079575 0.3126032672065361 -1.7930156889276123 5.651855355418796 -0.3106228306383813 0.10313703164476556 -1.1379534493429035 10.398804264323394" Properties=species:S:1:pos:R:3 unique_starting_index=56 config_type=initial n_minim_iter=3 stress="-0.009341494527216209 -0.0036011974022310675 -0.002403281509352786 -0.0036011974022310675 -0.008505680614645468 -0.003407199725412243 -0.002403281509352786 -0.003407199725412243 -0.008567662929366816" pbc="T T T"
Si      -0.47466505       3.80573475       8.27795523
Si       0.38664370       3.98189488      -0.13191030
Si      -1.34238402       4.49829557       1.19061049
Si       0.90299511       2.16479168       8.28720118
Si       2.29726026       0.53955335       8.20433300
Si      -0.04904049       2.80296861       1.93777942
6
Lattice="3.2781588928151484 -0.7767874928870422 0.3075181912630517 -1.7396409719629662 5.741215111106316 -0.2724147344346493 0.09715937769102512 -1.0868382149359985 10.36755348677654" Properties=species:S:1:pos:R:3 unique_starting_index=56 config_type=initial n_minim_iter=4 stress="0.0023834460350330914 0.00576799781644934 -0.00310252096906484 0.00576799781644934 -0.003035644743565614 0.0003397357665737291 -0.00310252096906484 0.0003397357665737291 -0.00013553788707790725" pbc="T T T"
Si      -0.43935017       3.92525573       8.28795120
Si       0.40816265       4.05638043      -0.09870067
Si      -1.30100916       4.57483980       1.21810835
Si       0.91634562       2.26908148       8.27967125
Si       2.28220557       0.62442782       8.18842688
Si      -0.02586957       2.87450353       1.94754450
6
Lattice="3.264012823316428 -0.7878013599771702 0.3126455188691922 -1.7370662739440355 5.803710981300702 -0.26027858157864675 0.12231102666265956 -1.0695132745570162 10.351585842420423" Properties=species:S:1:pos:R:3 unique_starting_index=56 config_type=initial n_minim_iter=5 stress="0.0013012961633201313 -0.003239242509854304 -0.005766602102485781 -0.003239242509854304 0.006857618567698432 0.000811416380052367 -0.005766602102485781 0.000811416380052367 0.004252285307728528" pbc="T T T"
Si      -0.42042141       3.98955389       8.28979365
Si       0.40054835       4.09857900      -0.08365746
Si      -1.29629674       4.62420098       1.22601363
Si       0.92948944       2.31335460       8.27562293
Si       2.29023378       0.65477959       8.18410710
Si      -0.02169206       2.91582230       1.95062915
6
Lattice="3.241054104254344 -0.7895277277973481 0.3418878283482567 -1.7147632527321528 5.873018253748591 -0.2523826971699795 0.2286740309526133 -1.0377572967812765 10.28068170480496" Properties=species:S:1:pos:R:3 unique_starting_index=56 config_type=initial n_minim_iter=6 stress="0.003525517422842325 0.0021282417607020325 -0.004209211168258764 0.0021282417607020325 0.010474538133260044 0.0002094332927301911 -0.004209211168258764 0.0002094332927301911 0.003491297601717597" pbc="T T T"
Si      -0.31856970       4.07235572       8.25484392
Si       0.40183956       4.15004609      -0.05827485
Si      -1.26420997       4.67453487       1.22275726
Si       1.01373863       2.37521168       8.23931548
Si       2.35820759       0.71321559       8.15495119
Si       0.00939094       2.97402240       1.94578383
6
Lattice="3.231229419379358 -0.7964958502924511 0.36940313223469534 -1.7180490595594877 5.899742978556118 -0.24621083116118436 0.3301019627880245 -1.0004722763807645 10.241690543382848" Properties=species:S:1:pos:R:3 unique_starting_index=56 config_type=initial n_minim_iter=7 stress="-0.004083458654153599 0.005020594466434667 0.0019412798611612534 0.005020594466434667 0.010787281834719145 -0.0015306620095332053 0.0019412798611612534 -0.0015306620095332053 -0.00013657098883887374" pbc="T T T"
Si      -0.24123774       4.11945214       8.24336542
Si       0.39252838       4.16634707      -0.03486703
Si      -1.25406957       4.69084894       1.22102425
Si       1.08750523       2.41598278       8.22679071
Si       2.42381993       0.75208448       8.14754843
Si       0.02769157       3.00597591       1.94738054
6
Lattice="3.2655187025880767 -0.814496741289698 0.4078110758578297 -1.7911074041255888 5.819854808249312 -0.22976657816359086 0.4819454026299761 -0.9036305805239309 10.237789091538174" Properties=species:S:1:pos:R:3 unique_starting_index=56 config_type=initial n_minim_iter=8 stress="-0.02089298059867058 0.0011867517956708495 0.005153828695681199 0.0011867517956708495 -0.007158310622248591 -0.0005551402891352178 0.005153828695681199 -0.0005551402891352178 0.00011367622779265602" pbc="T T T"
Si      -0.16846360       4.11313630       8.28277398
Si       0.36368079       4.08982901      -0.00278976
Si      -1.30084700       4.61771824       1.23274687
Si       1.17803391       2.42717717       8.25447476
Si       2.53931182       0.79729349       8.17570464
Si       0.03000064       2.99623000       1.96581220
6
Lattice="3.3064628727573155 -0.8165339166307699 0.399157957316409 -1.8301551599458552 5.755881955868618 -0.24025820413362667 0.45167440169739115 -0.9201882870670736 10.250615021880465" Properties=species:S:1:pos:R:3 unique_starting_index=56 config_type=initial n_minim_iter=9 stress="0.01397237321373667 0.00248410734503509 0.0005427507231557337 0.00248410734503509 -0.004751124159148208 -0.0010945249604179896 0.0005427507231557337 -0.0010945249604179896 0.0006009756686409851" pbc="T T T"
Si      -0.22219434       4.03459847       8.28814013
Si       0.36438237       4.03682451      -0.01732854
Si      -1.32605313       4.56186194       1.22100932
Si       1.15220381       2.37899149       8.25525803
Si       2.54056301       0.76212965       8.16885450
Si       0.00005979       2.95684759       1.96214462
6
Lattice="3.281226936153636 -0.8245193507726841 0.3877699171259638 -1.807736916029741 5.887096339441154 -0.13333007851042347 0.4714607537859462 -0.7452549253491458 10.120982261453452" Properties=species:S:1:pos:R:3 unique_starting_index=56 config_type=initial n_minim_iter=10 stress="0.0014095407269368342 0.004213900417327387 0.0008903425914560067 0.004213900417327387 0.004472100355553722 0.005696783519585498 0.0008903425914560067 0.005696783519585498 0.009506369129440136" pbc="T T T"
Si      -0.20150448       4.25703863       8.31380893
Si       0.39297124       4.12539332       0.07348707
Si      -1.30009974       4.65775088       1.27065914
Si       1.16024043       2.61348659       8.20707803
Si       2.54171487       0.95608851       8.07367346
Si      -0.00617309       3.10787341       1.99208972
6
Lattice="3.2923701037251214 -0.8563721152837317 0.3857100578103875 -1.8456021911070835 6.001221642259757 -0.06990953004928714 0.5242004732501487 -0.6478433016044334 9.865637196907777" Properties=species:S:1:pos:R:3 unique_starting_index=56 config_type=initial n_minim_iter=11 stress="-0.014807031608692874 -0.00406656042260421 0.002854615785800225 -0.00406656042260421 0.003951736338219309 0.012237951783299133 0.002854615785800225 0.012237951783299133 -0.011712680326011382" pbc="T T T"
Si      -0.20738241       4.39355715       8.21999023
Si       0.41460414       4.17994490       0.13575013
Si      -1.32631815       4.73008537       1.25071801
Si       1.19107425       2.74347923       8.03671780
Si       2.56701328       1.08583390       7.86535842
Si      -0.03322704       3.22851209       1.98189613
6
Lattice="3.307329998389348 -0.8845258468058319 0.3950654830354738 -1.8805787503010123 6.093071169424369 -0.06122775079099814 0.5802133040662744 -0.6424870752897595 9.712120666771158" Properties=species:S:1:pos:R:3 unique_starting_index=56 config_type=initial n_minim_iter=12 stress="-0.02400169111578318 -0.00399355281082235 -0.017301033949048538 -0.00399355281082235 0.0041506487833138875 0.012140824703872729 -0.017301033949048538 0.012140824703872729 -0.03659574575795305" pbc="T T T"
Si      -0.20323698       4.43742952       8.16503025
Si       0.44246442       4.22349475       0.15698470
Si      -1.35072658       4.77886141       1.19656365
Si       1.22166794       2.78629307       7.91722860
Si       2.60184254       1.13977172       7.72762986
Si      -0.05695824       3.30894304       1.97055968
6
Lattice="3.3731510613273583 -0.9532845235067539 0.4702649365170978 -2.011567622523566 6.193312909005469 -0.09393456544386553 0.8571967242725479 -0.6460563887520175 9.564518893304184" Properties=species:S:1:pos:R:3 unique_starting_index=56 config_type=initial n_minim_iter=13 stress="0.03741139491658636 -0.011770865881795411 -0.007013764934341092 -0.011770865881795411 -0.002671719008933677 0.012213473514506832 -0.007013764934341092 0.012213473514506832 -0.03509387323409303" pbc="T T T"
Si      -0.09561215       4.43715017       8.15505859
Si       0.46019955       4.23989295       0.18216701
Si      -1.41592955       4.80827565       1.08324959
Si       1.39481702       2.79586458       7.80519307
Si       2.80348269       1.19829758       7.60920232
Si      -0.09919435       3.41151466       1.96422259
6
Lattice="3.3775558299985873 -0.9834039006692624 0.5002448111490733 -2.041708501183593 6.291761037673157 -0.11490715861063484 0.9594866650694823 -0.6761869068908889 9.521574728160205" Properties=species:S:1:pos:R:3 unique_starting_index=56 config_type=initial n_minim_iter=14 stress="0.03435289755252429 -0.007799757428917307 0.0034386473594133853 -0.007799757428917307 -0.004688748390429376 0.011868927643710918 0.0034386473594133853 0.011868927643710918 -0.04475402074475204" pbc="T T T"
Si      -0.04559166       4.45464902       8.16901280
Si       0.47333789       4.29081079       0.18130760
Si      -1.42487617       4.86177103       1.02848111
Si       1.45931933       2.81269095       7.76707538
Si       2.86379838       1.22647562       7.56690800
Si      -0.11161113       3.48335269       1.96369232
6
Lattice="3.346361576262463 -1.0279181044682413 0.5248903591740747 -2.0507364551579523 6.434359074953989 -0.284587941948061 0.9513645703868869 -1.0200714426523187 9.720098550980564" Properties=species:S:1:pos:R:3 unique_starting_index=56 config_type=initial n_minim_iter=15 stress="0.017040968761630956 -0.0019447488845970185 0.015203475805276333 -0.0019447488845970185 -0.0007314522931451549 -0.012171074043850384 0.015203475805276333 -0.012171074043850384 -0.010977884231987388" pbc="T T T"
Si      -0.05965372       4.22908896       8.26702047
Si       0.43874559       4.38864476       0.03039696
Si      -1.42919578       4.94453167       0.88513789
Si       1.43130501       2.59234625       7.82606455
Si       2.81664211       1.02729447       7.64718259
Si      -0.12441302       3.47701897       1.93486120
6
Lattice="3.3533019351794877 -1.066969280857205 0.5117073470531563 -2.0913771740842457 6.5544790800939055 -0.2651419219607364 0.9265761013264294 -1.0192467146935624 9.692364840095738" Properties=species:S:1:pos:R:3 unique_starting_index=56 config_type=initial n_minim_iter=16 stress="-0.009032027286456452 0.00636045195142019 0.002373007279772178 0.00636045195142019 -0.00974163300042379 -0.00956018397823202 0.002373007279772178 -0.00956018397823202 -0.018482713337197424" pbc="T T T"
Si      -0.09428625       4.24306845       8.34465749
Si       0.41474064       4.45974838       0.02615896
Si      -1.44683913       5.01362817       0.86075169
Si       1.36933472       2.65014351       7.79038148
Si       2.78634065       1.10180784       7.58909240
Si      -0.16987114       3.57771905       1.94863214
6
Lattice="3.3701798685751725 -1.1183954036070227 0.5242337066039001 -2.1484739387590714 6.732117722309325 -0.23120586577863037 0.9813149927911116 -0.9646593196344048 9.859804589879575" Properties=species:S:1:pos:R:3 unique_starting_index=56 config_type=initial n_minim_iter=17 stress="0.04769877567379156 -0.009133730555430528 -0.0034070795209257486 -0.009133730555430528 0.0028914650828050672 -0.0003117003548745587 -0.0034070795209257486 -0.0003117003548745587 -0.0032394855704645266" pbc="T T T"
Si      -0.07292997       4.30909424       8.58209733
Si       0.39456900       4.54014501       0.06063053
Si      -1.47723035       5.12190082       0.88966646
Si       1.37200954       2.81301376       7.95291086
Si       2.80871268       1.24108850       7.69791700
Si      -0.20467061       3.75488510       2.00145174
6
Lattice="3.356074783974975 -1.1380949919738095 0.5459733595781247 -2.1366804943297395 6.8989652695725265 -0.22669429960448723 1.041695577424384 -0.9610232426062475 10.019045521398683" Properties=species:S:1:pos:R:3 unique_starting_index=56 config_type=initial n_minim_iter=18 stress="0.029244743505578836 0.003975008998749378 0.00734808691814112 0.003975008998749378 -0.002745512174043464 0.005166183015879794 0.00734808691814112 0.005166183015879794 0.013035346100207831" pbc="T T T"
Si      -0.00895547       4.35357261       8.75764669
Si       0.40876847       4.62426099       0.08934511
Si      -1.45468061       5.22868506       0.90741437
Si       1.40650958       2.93838050       8.09525780
Si       2.84137303       1.35803454       7.81212068
Si      -0.19807719       3.91283449       2.03042465
6
Lattice="3.336415507972327 -1.170505590775604 0.5058165670240514 -2.1046681211878626 7.184996058481733 -0.2601310464777227 0.8750470713491845 -1.1333577490025315 10.12248090855601" Properties=species:S:1:pos:R:3 unique_starting_index=56 config_type=initial n_minim_iter=19 stress="0.0322346935974636 0.011879818501550727 -0.0019270935956688935 0.011879818501550727 -0.015043300102135733 0.0014575387713930393 -0.0019270935956688935 0.0014575387713930393 -0.0018079332284010618" pbc="T T T"
Si      -0.15757913       4.32592293       8.80183423
Si       0.38698837       4.76329791       0.04080984
Si      -1.43840583       5.42476733       0.90755004
Si       1.31587956       2.97174733       8.15089700
Si       2.71035248       1.42444539       7.82903626
Si      -0.19608174       4.11456058       2.00092297
6
Lattice="3.3083382854880483 -1.2042210432014757 0.48673876404995176 -2.0661265446334793 7.503622846284882 -0.27875207175398165 0.7828869679048575 -1.2571438110328879 10.26297977368678" Properties=species:S:1:pos:R:3 unique_starting_index=56 config_type=initial n_minim_iter=20 stress="0.003035317378728911 0.010289743534448871 -0.012994030548199911 0.010289743534448871 -0.010800473615934973 0.005338603725880486 -0.012994030548199911 0.005338603725880486 -0.008912257488969025" pbc="T T T"
Si      -0.25374011       4.37091806       8.91208843
Si       0.38484613       4.91604424       0.02027113
Si      -1.41312510       5.65571947       0.91009428
Si       1.27351865       3.07378160       8.25255838
Si       2.63906564       1.53144995       7.89033328
Si      -0.17684312       4.34643529       2.00082608
6
Lattice="3.294182397026394 -1.3510151387044314 0.5056294971691462 -2.0995951967249793 8.308091370825096 -0.4232076851358876 0.7637984215732881 -1.691979419224636 10.541528211945636" Properties=species:S:1:pos:R:3 unique_starting_index=56 config_type=initial n_minim_iter=21 stress="0.0257385178682775 -0.0006197079759673693 -0.0018383090279010068 -0.0006197079759673693 -0.006465510344362566 0.0021155605749622014 -0.0018383090279010068 0.0021155605749622014 0.005001683906185853" pbc="T T T"
Si      -0.35616857       4.29098346       9.16496849
Si       0.34986380       5.27406515      -0.06124135
Si      -1.42784682       6.18231045       0.77863221
Si       1.25290541       3.20223180       8.40022594
Si       2.59358195       1.71769799       7.96465426
Si      -0.18365547       4.92834263       1.95744910
