22
Lattice="5.532905266978468 -0.6404483080358816 -1.4084829591111336 -2.392309592587191 10.576825470674915 -2.0535735848629715 -4.732321244891261 -5.178776661079098 10.789846691219205" Properties=species:S:1:pos:R:3 unique_starting_index=18 config_type=initial n_minim_iter=1 energy=-3583.7125305799414 free_energy=-3583.7125305799414 pbc="T T T"
Si      -0.05267279       9.30666149      -1.04064324
Si      -1.52076575      -1.27779796       5.70439933
Si      -4.08756025      -3.65703130       9.65310079
Si      -0.05251651      -2.83403077       8.71771689
Si      -5.56699749      -0.39491199       8.96625742
Si       4.15746822       2.12235721       0.05579267
Si       2.19676458       0.77802808       0.33854175
Si      -1.52260116       0.38055680       7.03221517
Si      -2.00081291      -3.45148927       9.30666802
Si      -2.67581535       1.00545418       5.35683301
Si       1.14288531      -0.27922752       2.51633144
Si      -2.95015445       3.49542274       5.05985310
Si      -3.31881943      -2.82425579       6.23413965
Si      -0.51684746       6.78073985      -1.11025145
Si       1.02652551       1.42785270       3.82526460
Si       1.20060061       7.80072459      -1.85464128
Si      -0.89049679      -1.31683237       3.28446355
Si       2.41512770      -4.97964369       6.31387067
Si       0.18048218       3.18571821       2.94903939
Si      -2.80398430       2.45078139       6.90291474
Si      -1.51184513       4.36598535       3.45003984
Si      -1.83342842      -2.16278465       7.61104078
22
Lattice="5.5323913339754505 -0.6403250315182474 -1.4085102363877087 -2.3917803850938966 10.577183954964092 -2.0534961346457328 -4.732132482988526 -5.179101315129849 10.789671303211177" Properties=species:S:1:pos:R:3 unique_starting_index=18 config_type=initial n_minim_iter=2 stress="-0.0008911970623666955 0.0001648468151519006 -6.256936761731368e-05 0.0001648468151519006 -0.0007349972268050016 -0.00018323556526547377 -6.256936761731368e-05 -0.00018323556526547377 -0.0004472197671874388" pbc="T T T"
Si      -0.05231974       9.30692565      -1.04060250
Si      -1.52071817      -1.27782722       5.70437949
Si      -4.08736085      -3.65726919       9.65294369
Si      -0.05268200      -2.83411484       8.71747106
Si      -5.56654311      -0.39510621       8.96614940
Si       4.15702266       2.12251792       0.05573545
Si       2.19658295       0.77813043       0.33858026
Si      -1.52248830       0.38049738       7.03205345
Si      -2.00072637      -3.45158204       9.30652160
Si      -2.67557250       1.00542735       5.35677926
Si       1.14272514      -0.27912359       2.51625426
Si      -2.94990173       3.49547708       5.05973724
Si      -3.31871137      -2.82447450       6.23404516
Si      -0.51661134       6.78098916      -1.11025503
Si       1.02644850       1.42795012       3.82516569
Si       1.20063318       7.80116857      -1.85447641
Si      -0.89049748      -1.31691101       3.28439034
Si       2.41466768      -4.97983107       6.31370736
Si       0.18061956       3.18580935       2.94897417
Si      -2.80372126       2.45073829       6.90272922
Si      -1.51163204       4.36623731       3.45004799
Si      -1.83336463      -2.16294716       7.61084041
22
Lattice="5.532474496227998 -0.6403984609629757 -1.4085840142661676 -2.3917374359691377 10.578450653149325 -2.053318304519423 -4.732265659064212 -5.179540680753527 10.789922543849237" Properties=species:S:1:pos:R:3 unique_starting_index=18 config_type=initial n_minim_iter=3 stress="-3.276162955944181e-05 7.739866762905346e-05 -5.361209090780693e-05 7.739866762905346e-05 0.00013472610584607442 -0.0001514019902281621 -5.361209090780693e-05 -0.0001514019902281621 0.00024447104555634126" pbc="T T T"
Si      -0.05217320       9.30797055      -1.04040744
Si      -1.52076403      -1.27780838       5.70462241
Si      -4.08745515      -3.65752967       9.65319063
Si      -0.05272394      -2.83424827       8.71761960
Si      -5.56659765      -0.39503488       8.96647142
Si       4.15697518       2.12277535       0.05576386
Si       2.19662621       0.77826434       0.33867311
Si      -1.52249321       0.38065758       7.03226464
Si      -2.00071561      -3.45172653       9.30678099
Si      -2.67558292       1.00564201       5.35700354
Si       1.14271054      -0.27900426       2.51631177
Si      -2.94999911       3.49600297       5.05993711
Si      -3.31886393      -2.82473692       6.23419484
Si      -0.51657972       6.78180132      -1.11017861
Si       1.02646567       1.42823330       3.82530797
Si       1.20063039       7.80221013      -1.85423279
Si      -0.89054272      -1.31701354       3.28445677
Si       2.41461762      -4.98035814       6.31379468
Si       0.18074184       3.18623098       2.94913484
Si      -2.80375703       2.45110983       6.90294569
Si      -1.51164654       4.36697469       3.45032558
Si      -1.83339555      -2.16310016       7.61098511
22
Lattice="5.532548075850512 -0.6405475970122831 -1.4084879156701866 -2.3919573828896663 10.578516615313319 -2.0528273039687246 -4.732132485834657 -5.179083728911664 10.789200598182285" Properties=species:S:1:pos:R:3 unique_starting_index=18 config_type=initial n_minim_iter=4 stress="6.256769476891731e-05 -0.00014539531700644113 -2.0457956060744483e-05 -0.00014539531700644113 1.3828287361774564e-05 0.00019129680541806843 -2.0457956060744483e-05 0.00019129680541806843 -0.00024966188305123026" pbc="T T T"
Si      -0.05231861       9.30801896      -1.03995586
Si      -1.52070120      -1.27752913       5.70434018
Si      -4.08733949      -3.65710603       9.65258574
Si      -0.05256907      -2.83390844       8.71708871
Si      -5.56655115      -0.39460129       8.96602428
Si       4.15695101       2.12271950       0.05590590
Si       2.19665981       0.77826671       0.33872824
Si      -1.52241506       0.38094476       7.03195539
Si      -2.00058588      -3.45133243       9.30623153
Si      -2.67555780       1.00590498       5.35679087
Si       1.14274824      -0.27887408       2.51619762
Si      -2.95007535       3.49627895       5.05981223
Si      -3.31883112      -2.82447842       6.23378321
Si      -0.51671514       6.78181941      -1.10988488
Si       1.02650113       1.42839583       3.82520493
Si       1.20050031       7.80221309      -1.85378638
Si      -0.89050467      -1.31688197       3.28424878
Si       2.41479808      -4.98020440       6.31336572
Si       0.18075610       3.18637574       2.94914342
Si      -2.80375831       2.45142632       6.90268157
Si      -1.51168512       4.36722404       3.45035988
Si      -1.83328781      -2.16281101       7.61053257
22
Lattice="5.532547392677481 -0.6403259174341773 -1.4080948241221467 -2.3915993345788933 10.578872008450311 -2.0526750988603455 -4.731683327694943 -5.179232253353757 10.788834012388676" Properties=species:S:1:pos:R:3 unique_starting_index=18 config_type=initial n_minim_iter=5 stress="0.0005089048046045033 0.000278127229077403 0.00022958014739151702 0.000278127229077403 -0.00035989841117810533 -9.374389100931001e-05 0.00022958014739151702 -9.374389100931001e-05 -8.991240834306152e-05" pbc="T T T"
Si      -0.05188313       9.30849982      -1.03939691
Si      -1.52033653      -1.27716559       5.70437410
Si      -4.08681749      -3.65711945       9.65230084
Si      -0.05188530      -2.83366905       8.71681761
Si      -5.56589853      -0.39464672       8.96580577
Si       4.15685503       2.12295616       0.05644483
Si       2.19686070       0.77852581       0.33903729
Si      -1.52164092       0.38091574       7.03194893
Si      -2.00019085      -3.45120115       9.30611746
Si      -2.67507145       1.00598810       5.35670940
Si       1.14288765      -0.27838573       2.51626201
Si      -2.94979914       3.49643914       5.05961158
Si      -3.31880414      -2.82469888       6.23357798
Si      -0.51654739       6.78195417      -1.10987267
Si       1.02692729       1.42865379       3.82533413
Si       1.20085180       7.80265622      -1.85325976
Si      -0.89038105      -1.31689316       3.28416342
Si       2.41512619      -4.98016166       6.31365601
Si       0.18126298       3.18668765       2.94936251
Si      -2.80315933       2.45138319       6.90245291
Si      -1.51104768       4.36769102       3.45055998
Si      -1.83276115      -2.16296539       7.61036915
22
Lattice="5.531952408923623 -0.64067015252026 -1.4082195363842178 -2.391687554383302 10.580215304767293 -2.0522398791086514 -4.7310453571150175 -5.1792246931102675 10.789027301299052" Properties=species:S:1:pos:R:3 unique_starting_index=18 config_type=initial n_minim_iter=6 stress="-0.00011867031847721032 -0.00021973118941775533 0.00010430459622429629 -0.00021973118941775533 -0.00013846144020283327 2.8212691474251894e-05 0.00010430459622429629 2.8212691474251894e-05 0.0003383742780160035" pbc="T T T"
Si      -0.05221050       9.30968546      -1.03881898
Si      -1.52014580      -1.27681427       5.70455960
Si      -4.08626162      -3.65695524       9.65251610
Si      -0.05176261      -2.83358572       8.71679540
Si      -5.56525566      -0.39412601       8.96621435
Si       4.15607635       2.12300665       0.05660397
Si       2.19663098       0.77861748       0.33914206
Si      -1.52139493       0.38124402       7.03222981
Si      -1.99996847      -3.45108422       9.30630072
Si      -2.67479913       1.00642563       5.35694657
Si       1.14269387      -0.27809605       2.51628871
Si      -2.94978892       3.49720254       5.05985565
Si      -3.31851134      -2.82472340       6.23375968
Si      -0.51679525       6.78267393      -1.10971648
Si       1.02674689       1.42894739       3.82548336
Si       1.20049370       7.80352807      -1.85286299
Si      -0.89028804      -1.31688393       3.28421177
Si       2.41501570      -4.98061790       6.31376699
Si       0.18114841       3.18725953       2.94964642
Si      -2.80299869       2.45196162       6.90272693
Si      -1.51092527       4.36858988       3.45096705
Si      -1.83247474      -2.16296589       7.61049234
22
Lattice="5.5316952449786285 -0.6405135682208628 -1.4083464995840338 -2.390897985088867 10.581751079867987 -2.0516343207058667 -4.731554668281704 -5.180013339969254 10.788069507166625" Properties=species:S:1:pos:R:3 unique_starting_index=18 config_type=initial n_minim_iter=7 stress="-8.072502595408862e-06 0.00018550463329041936 -0.00024826759148569786 0.00018550463329041936 0.00016991408568424102 9.327108509979831e-05 -0.00024826759148569786 9.327108509979831e-05 -7.922639039686705e-05" pbc="T T T"
Si      -0.05165188       9.31120909      -1.03827169
Si      -1.52036808      -1.27677065       5.70403751
Si      -4.08669347      -3.65746342       9.65168908
Si      -0.05222467      -2.83378772       8.71570940
Si      -5.56530255      -0.39428449       8.96565636
Si       4.15575267       2.12350780       0.05657886
Si       2.19659888       0.77892287       0.33910786
Si      -1.52149839       0.38139273       7.03164153
Si      -2.00045374      -3.45144356       9.30538555
Si      -2.67479437       1.00655533       5.35656322
Si       1.14245639      -0.27774831       2.51595024
Si      -2.94976686       3.49777607       5.05950062
Si      -3.31887745      -2.82525317       6.23332922
Si      -0.51643153       6.78358990      -1.10951685
Si       1.02657199       1.42925198       3.82507272
Si       1.20097758       7.80483312      -1.85241541
Si      -0.89048566      -1.31705681       3.28388911
Si       2.41440610      -4.98111515       6.31307116
Si       0.18120105       3.18792313       2.94949220
Si      -2.80304984       2.45227689       6.90215937
Si      -1.51060884       4.36942050       3.45088650
Si      -1.83278441      -2.16333158       7.60968754
22
Lattice="5.531266937000834 -0.640731096769104 -1.4076371471444318 -2.3913213786673966 10.583084484170199 -2.051963575276338 -4.730012829183082 -5.180715717258959 10.786772692919353" Properties=species:S:1:pos:R:3 unique_starting_index=18 config_type=initial n_minim_iter=8 stress="6.347179766264654e-05 -0.00023520812833696789 1.926022031288823e-05 -0.00023520812833696789 0.00019343024157426192 -0.0004298805793619595 1.926022031288823e-05 -0.0004298805793619595 -0.0003774428169357703" pbc="T T T"
Si      -0.05200445       9.31232512      -1.03817326
Si      -1.51962433      -1.27676433       5.70331676
Si      -4.08548582      -3.65795433       9.65054581
Si      -0.05116683      -2.83436565       8.71477416
Si      -5.56393106      -0.39449251       8.96440507
Si       4.15514485       2.12350720       0.05714858
Si       2.19657641       0.77898891       0.33939722
Si      -1.52059896       0.38135824       7.03087606
Si      -1.99915059      -3.45195120       9.30438792
Si      -2.67404692       1.00653421       5.35572441
Si       1.14257501      -0.27746283       2.51578294
Si      -2.94936009       3.49815368       5.05851418
Si      -3.31811285      -2.82573359       6.23269821
Si      -0.51685554       6.78417843      -1.10985467
Si       1.02679687       1.42915160       3.82472048
Si       1.20046652       7.80580785      -1.85217293
Si      -0.89009068      -1.31726032       3.28353633
Si       2.41520536      -4.98189352       6.31313302
Si       0.18140103       3.18828355       2.94924789
Si      -2.80232405       2.45229388       6.90106515
Si      -1.51006537       4.37001254       3.45038530
Si      -1.83172530      -2.16386910       7.60868806
22
Lattice="5.530796031220854 -0.640643876351464 -1.4072944583264897 -2.390884691512001 10.583151269254008 -2.051233679741263 -4.729099914575013 -5.1801049851506695 10.786194471884455" Properties=species:S:1:pos:R:3 unique_starting_index=18 config_type=initial n_minim_iter=9 stress="-0.0001954506814980393 0.00014491841553661194 0.00028045081250292666 0.00014491841553661194 0.00018293322605461665 0.00010579121554142556 0.00028045081250292666 0.00010579121554142556 -4.621216673080448e-05" pbc="T T T"
Si      -0.05162301       9.31256266      -1.03715711
Si      -1.51911015      -1.27615454       5.70309776
Si      -4.08476873      -3.65735458       9.65015456
Si      -0.05055073      -2.83371125       8.71453965
Si      -5.56284000      -0.39399621       8.96421532
Si       4.15474223       2.12367860       0.05785971
Si       2.19657889       0.77917796       0.33974509
Si      -1.51983453       0.38199188       7.03099442
Si      -1.99832080      -3.45126657       9.30409371
Si      -2.67336999       1.00685041       5.35564594
Si       1.14261745      -0.27684222       2.51584277
Si      -2.94877177       3.49860340       5.05861541
Si      -3.31766675      -2.82550115       6.23250240
Si      -0.51671961       6.78408301      -1.10948420
Si       1.02705830       1.42948361       3.82494612
Si       1.20056600       7.80603338      -1.85129036
Si      -0.88985899      -1.31703893       3.28342835
Si       2.41544789      -4.98135277       6.31321478
Si       0.18178441       3.18871062       2.94969310
Si      -2.80156710       2.45277724       6.90114349
Si      -1.50932310       4.37052310       3.45080315
Si      -1.83101372      -2.16344631       7.60835882
22
Lattice="5.531088314798621 -0.6407482924314266 -1.4076856600525045 -2.3910420922219977 10.58242626954407 -2.050812159873745 -4.729799109104524 -5.179312929210395 10.786682650239316" Properties=species:S:1:pos:R:3 unique_starting_index=18 config_type=initial n_minim_iter=10 stress="5.3572847120239036e-05 -1.1154325729150646e-05 -0.00011649812372368541 -1.1154325729150646e-05 -0.00017262808698927844 -7.964025887297951e-06 -0.00011649812372368541 -7.964025887297951e-06 2.3535767608023782e-05" pbc="T T T"
Si      -0.05165890       9.31194966      -1.03667857
Si      -1.51943396      -1.27560685       5.70317162
Si      -4.08554532      -3.65673614       9.65063997
Si      -0.05095204      -2.83329170       8.71460326
Si      -5.56353717      -0.39358903       8.96487723
Si       4.15460885       2.12338341       0.05791925
Si       2.19670015       0.77911769       0.33976459
Si      -1.52018760       0.38225406       7.03135875
Si      -1.99874090      -3.45068910       9.30440127
Si      -2.67373836       1.00692647       5.35595392
Si       1.14243524      -0.27638668       2.51577358
Si      -2.94938543       3.49856789       5.05899299
Si      -3.31820494      -2.82514781       6.23303774
Si      -0.51690519       6.78337620      -1.10946203
Si       1.02681637       1.42940412       3.82497973
Si       1.20055484       7.80552655      -1.85105984
Si      -0.89007619      -1.31681662       3.28356307
Si       2.41537356      -4.98082697       6.31333713
Si       0.18165708       3.18857723       2.94996079
Si      -2.80218949       2.45278405       6.90151645
Si      -1.50950154       4.37054190       3.45123263
Si      -1.83138812      -2.16311956       7.60844671
22
Lattice="5.53074654544207 -0.6408863996132919 -1.4071742097085584 -2.3910789214006485 10.583740635985816 -2.0503521882136293 -4.728624078153534 -5.179384720832933 10.785757012006133" Properties=species:S:1:pos:R:3 unique_starting_index=18 config_type=initial n_minim_iter=11 stress="-3.0324276842898533e-05 -9.398490750894583e-06 1.674677226434411e-06 -9.398490750894583e-06 8.673586053754093e-06 -1.8428646308076048e-05 1.674677226434411e-06 -1.8428646308076048e-05 3.9736351519582125e-06" pbc="T T T"
Si      -0.05149379       9.31325989      -1.03566564
Si      -1.51874652      -1.27485121       5.70240432
Si      -4.08448817      -3.65686070       9.64987992
Si      -0.05006314      -2.83336310       8.71415722
Si      -5.56254552      -0.39306382       8.96410166
Si       4.15404575       2.12355779       0.05905807
Si       2.19683214       0.77931542       0.34014854
Si      -1.51927359       0.38280894       7.03107349
Si      -1.99777460      -3.45076842       9.30409120
Si      -2.67311834       1.00732749       5.35562212
Si       1.14244239      -0.27547888       2.51555313
Si      -2.94902405       3.49931488       5.05870506
Si      -3.31774911      -2.82538476       6.23295318
Si      -0.51712544       6.78378257      -1.10950772
Si       1.02716298       1.42953013       3.82494930
Si       1.20027200       7.80670464      -1.85031867
Si      -0.88974749      -1.31675579       3.28341490
Si       2.41611287      -4.98109132       6.31361636
Si       0.18226884       3.18905132       2.95027002
Si      -2.80165133       2.45327059       6.90104030
Si      -1.50885477       4.37177661       3.45147253
Si      -1.83039438      -2.16304823       7.60739013
22
Lattice="5.530576370022939 -0.6409014184459276 -1.4065594818221827 -2.3908388680426884 10.584527742119217 -2.049047081950958 -4.727664991178192 -5.17869468049689 10.78387461694171" Properties=species:S:1:pos:R:3 unique_starting_index=18 config_type=initial n_minim_iter=12 stress="-6.848048844873919e-05 4.141535555149981e-06 2.3035366980197623e-05 4.141535555149981e-06 4.965062867014282e-05 1.2877157446153241e-05 2.3035366980197623e-05 1.2877157446153241e-05 3.254443055344414e-05" pbc="T T T"
Si      -0.05094249       9.31439333      -1.03376235
Si      -1.51803607      -1.27326757       5.70111258
Si      -4.08328240      -3.65663802       9.64827900
Si      -0.04927384      -2.83277365       8.71326540
Si      -5.56161727      -0.39209557       8.96259563
Si       4.15366406       2.12381176       0.06069705
Si       2.19699514       0.77935199       0.34100142
Si      -1.51851318       0.38383554       7.03006384
Si      -1.99672435      -3.44982590       9.30281083
Si      -2.67235247       1.00794107       5.35520808
Si       1.14244659      -0.27419687       2.51493709
Si      -2.94865945       3.50017535       5.05840243
Si      -3.31761668      -2.82527528       6.23241318
Si      -0.51704465       6.78393429      -1.10911181
Si       1.02767412       1.42999922       3.82488209
Si       1.20025324       7.80757435      -1.84904269
Si      -0.88943042      -1.31641404       3.28303772
Si       2.41686607      -4.98083488       6.31336205
Si       0.18296456       3.18968415       2.95081879
Si      -2.80122252       2.45406143       6.90045228
Si      -1.50771036       4.37315899       3.45184184
Si      -1.82941023      -2.16259456       7.60583507
22
Lattice="5.531562210215169 -0.641084286201191 -1.406393054638593 -2.391345015911132 10.583887783344508 -2.0474540502132874 -4.7283370361748185 -5.1770725239729725 10.781862018026064" Properties=species:S:1:pos:R:3 unique_starting_index=18 config_type=initial n_minim_iter=13 stress="-1.7340937085062453e-05 -1.1319146731196505e-05 5.260793933929653e-06 -1.1319146731196505e-05 5.291719223294421e-06 -5.3867838759927504e-06 5.260793933929653e-06 -5.3867838759927504e-06 2.4586839561162953e-05" pbc="T T T"
Si      -0.05066509       9.31410242      -1.03189469
Si      -1.51813588      -1.27165933       5.69971475
Si      -4.08353188      -3.65589433       9.64656752
Si      -0.04884909      -2.83172724       8.71189718
Si      -5.56267966      -0.39097895       8.96094882
Si       4.15376546       2.12350113       0.06179739
Si       2.19742567       0.77917805       0.34153943
Si      -1.51860598       0.38488943       7.02910081
Si      -1.99666742      -3.44824219       9.30167409
Si      -2.67283194       1.00865949       5.35446555
Si       1.14241115      -0.27307185       2.51386734
Si      -2.94949981       3.50079441       5.05779247
Si      -3.31863071      -2.82454319       6.23175881
Si      -0.51715069       6.78333705      -1.10858061
Si       1.02801691       1.43027380       3.82464126
Si       1.20021361       7.80732943      -1.84781772
Si      -0.88956441      -1.31587971       3.28244950
Si       2.41766825      -4.98025810       6.31259032
Si       0.18298185       3.18998380       2.95123020
Si      -2.80218097       2.45443137       6.90018034
Si      -1.50708117       4.37389603       3.45205320
Si      -1.82935268      -2.16170244       7.60387753
22
Lattice="5.532544589278333 -0.6414433237642357 -1.406341012784223 -2.3920938408562953 10.583502455674415 -2.0457798309891637 -4.729024232862117 -5.1753641287663905 10.77996756936127" Properties=species:S:1:pos:R:3 unique_starting_index=18 config_type=initial n_minim_iter=14 stress="4.110248824509064e-05 -1.8924226129535043e-05 -8.512593490957289e-06 -1.8924226129535043e-05 5.967777809410867e-05 1.2874009605229747e-05 -8.512593490957289e-06 1.2874009605229747e-05 1.662438577611747e-05" pbc="T T T"
Si      -0.05061058       9.31383875      -1.03009327
Si      -1.51831297      -1.27024267       5.69819507
Si      -4.08375668      -3.65494839       9.64497562
Si      -0.04840393      -2.83075820       8.71053391
Si      -5.56380960      -0.38972731       8.95943455
Si       4.15385525       2.12313472       0.06277378
Si       2.19771633       0.77897121       0.34205825
Si      -1.51880100       0.38617121       7.02847844
Si      -1.99680647      -3.44652919       9.30037246
Si      -2.67352775       1.00970909       5.35380435
Si       1.14235784      -0.27214474       2.51279087
Si      -2.95042314       3.50148968       5.05752120
Si      -3.31965394      -2.82367535       6.23104736
Si      -0.51735863       6.78301980      -1.10792247
Si       1.02825022       1.43060053       3.82451295
Si       1.19995425       7.80721400      -1.84648557
Si      -0.88974562      -1.31535751       3.28180282
Si       2.41865223      -4.97973124       6.31193318
Si       0.18286792       3.19033704       2.95159603
Si      -2.80329044       2.45497661       6.89965037
Si      -1.50689654       4.37471448       3.45225055
Si      -1.82946138      -2.16089295       7.60228788
22
Lattice="5.532853596339139 -0.641778397449327 -1.4062276058518033 -2.3927752542229554 10.582743927925938 -2.044905309843224 -4.728862390282641 -5.173965454478049 10.778904785159664" Properties=species:S:1:pos:R:3 unique_starting_index=18 config_type=initial n_minim_iter=15 stress="1.2643301230357358e-05 -4.618235758615985e-05 7.789653446547126e-06 -4.618235758615985e-05 8.204983683984402e-05 -1.5119020844767365e-05 7.789653446547126e-06 -1.5119020844767365e-05 -2.9186035541919127e-05" pbc="T T T"
Si      -0.05083516       9.31306934      -1.02903500
Si      -1.51824065      -1.26915263       5.69742808
Si      -4.08329245      -3.65404800       9.64410717
Si      -0.04781518      -2.83030251       8.70981834
Si      -5.56411264      -0.38882635       8.95841311
Si       4.15360876       2.12264506       0.06354870
Si       2.19768283       0.77878718       0.34242599
Si      -1.51868494       0.38677765       7.02810203
Si      -1.99650919      -3.44518811       9.29971221
Si      -2.67361234       1.01018388       5.35322425
Si       1.14230180      -0.27161011       2.51206713
Si      -2.95072565       3.50188164       5.05734379
Si      -3.31999851      -2.82293658       6.23067215
Si      -0.51765778       6.78249748      -1.10758845
Si       1.02808336       1.43063085       3.82458469
Si       1.19951717       7.80670069      -1.84571006
Si      -0.88975103      -1.31497436       3.28135462
Si       2.41958385      -4.97924205       6.31187814
Si       0.18275932       3.19032879       2.95182687
Si      -2.80386558       2.45526990       6.89943734
Si      -1.50689074       4.37502921       3.45228717
Si      -1.82926760      -2.16030587       7.60129410
22
Lattice="5.5336335654072375 -0.642365346068733 -1.4066342613718645 -2.39394572818185 10.578877701711825 -2.0426057576605783 -4.729177853374915 -5.169237573402863 10.779093462101358" Properties=species:S:1:pos:R:3 unique_starting_index=18 config_type=initial n_minim_iter=16 stress="3.198410389260252e-05 -2.042256561411859e-05 4.056540133566447e-05 -2.042256561411859e-05 6.169946218060975e-05 -1.4230536762384817e-05 4.056540133566447e-05 -1.4230536762384817e-05 -4.7292858881893274e-05" pbc="T T T"
Si      -0.05128543       9.30960112      -1.02610415
Si      -1.51848596      -1.26608605       5.69730032
Si      -4.08291577      -3.65055051       9.64464099
Si      -0.04695645      -2.82849605       8.71007949
Si      -5.56481869      -0.38644637       8.95865658
Si       4.15320976       2.12126860       0.06542734
Si       2.19747935       0.77855212       0.34310459
Si      -1.51914462       0.38874508       7.02881976
Si      -1.99594785      -3.44074896       9.30085410
Si      -2.67424418       1.01167540       5.35363570
Si       1.14206799      -0.27021493       2.51095873
Si      -2.95161202       3.50233525       5.05866754
Si      -3.32128187      -2.82053293       6.23138888
Si      -0.51824669       6.77994728      -1.10646476
Si       1.02796760       1.43057224       3.82594652
Si       1.19933641       7.80378475      -1.84415144
Si      -0.88999223      -1.31367020       3.28100101
Si       2.42132744      -4.97678313       6.31273151
Si       0.18242565       3.18998612       2.95322246
Si      -2.80545975       2.45572095       6.90077854
Si      -1.50713664       4.37524726       3.45351307
Si      -1.82948229      -2.15812415       7.60071729
22
Lattice="5.534174031500464 -0.6427938356157535 -1.4075334850119763 -2.3946350380193033 10.57474937967422 -2.0406117752159014 -4.730057939673613 -5.164755503785556 10.780727223228462" Properties=species:S:1:pos:R:3 unique_starting_index=18 config_type=initial n_minim_iter=17 stress="-3.9663895354239476e-05 -1.0848776990629295e-06 7.936768898069012e-06 -1.0848776990629295e-06 -3.908143314851809e-05 1.0642879816844495e-05 7.936768898069012e-06 1.0642879816844495e-05 2.0810010123224093e-05" pbc="T T T"
Si      -0.05147027       9.30562034      -1.02374007
Si      -1.51909905      -1.26366420       5.69776082
Si      -4.08290910      -3.64725459       9.64639420
Si      -0.04701462      -2.82650968       8.71108676
Si      -5.56590183      -0.38424794       8.96027608
Si       4.15289354       2.12001199       0.06692598
Si       2.19710381       0.77849545       0.34340724
Si      -1.51995862       0.39063460       7.03037125
Si      -1.99621931      -3.43671095       9.30302919
Si      -2.67461081       1.01277306       5.35507571
Si       1.14168039      -0.26897678       2.51035690
Si      -2.95257935       3.50250233       5.06059728
Si      -3.32280358      -2.81843659       6.23289195
Si      -0.51869867       6.77720195      -1.10544562
Si       1.02729520       1.43052794       3.82748114
Si       1.19935336       7.80078004      -1.84309869
Si      -0.89038986      -1.31241749       3.28111833
Si       2.42210246      -4.97425263       6.31375790
Si       0.18174643       3.18965777       2.95472651
Si      -2.80713589       2.45582302       6.90279477
Si      -1.50728706       4.37523994       3.45507268
Si      -1.83013179      -2.15598602       7.60119920
22
Lattice="5.535935788055524 -0.6437604041712384 -1.408445750271847 -2.3968548349501493 10.569853003201834 -2.038184738340043 -4.731568197256871 -5.159068399795905 10.781562412124696" Properties=species:S:1:pos:R:3 unique_starting_index=18 config_type=initial n_minim_iter=18 stress="1.660677233595218e-05 -1.0584567251855269e-05 4.7301541336478695e-05 -1.0584567251855269e-05 -3.7245235612551726e-05 1.649835362290814e-05 4.7301541336478695e-05 1.649835362290814e-05 -5.3722144490419804e-05" pbc="T T T"
Si      -0.05238559       9.30015424      -1.02078422
Si      -1.52018974      -1.26065770       5.69775335
Si      -4.08293651      -3.64341086       9.64747466
Si      -0.04702942      -2.82431391       8.71105441
Si      -5.56830349      -0.38106397       8.96086462
Si       4.15312644       2.11806342       0.06950898
Si       2.19658286       0.77845317       0.34385517
Si      -1.52094559       0.39278652       7.03145407
Si      -1.99624203      -3.43145168       9.30442637
Si      -2.67588461       1.01427244       5.35576614
Si       1.14145484      -0.26724038       2.50924613
Si      -2.95481735       3.50272417       5.06234146
Si      -3.32566617      -2.81627319       6.23422584
Si      -0.51992929       6.77390436      -1.10424701
Si       1.02702350       1.42972905       3.82909095
Si       1.19903534       7.79698008      -1.84211015
Si      -0.89093577      -1.31080628       3.28083027
Si       2.42437161      -4.97144220       6.31487467
Si       0.18052023       3.18941233       2.95608878
Si      -2.81026678       2.45598535       6.90459694
Si      -1.50795650       4.37593197       3.45636128
Si      -1.83116090      -2.15347019       7.60047293
22
Lattice="5.537243726876797 -0.6441684845177914 -1.4091953821333871 -2.3980901533786896 10.565171161834872 -2.036715538778619 -4.733119447655637 -5.154945620975814 10.782230715797985" Properties=species:S:1:pos:R:3 unique_starting_index=18 config_type=initial n_minim_iter=19 stress="2.115888841894672e-05 1.2253933964579604e-05 4.699291698624831e-06 1.2253933964579604e-05 -6.488508017005945e-05 1.5814034389131982e-05 4.699291698624831e-06 1.5814034389131982e-05 -0.0001011233249769783" pbc="T T T"
Si      -0.05277285       9.29496835      -1.01879849
Si      -1.52125409      -1.25827379       5.69710967
Si      -4.08311185      -3.64090352       9.64824939
Si      -0.04709451      -2.82278416       8.71041436
Si      -5.57037228      -0.37954100       8.96100267
Si       4.15302152       2.11642123       0.07161015
Si       2.19594266       0.77860584       0.34394166
Si      -1.52189316       0.39414447       7.03176988
Si      -1.99623920      -3.42750340       9.30604444
Si      -2.67682621       1.01482797       5.35599837
Si       1.14132751      -0.26574481       2.50828834
Si      -2.95655519       3.50226424       5.06354130
Si      -3.32862167      -2.81536566       6.23541846
Si      -0.52014211       6.77123191      -1.10371239
Si       1.02670062       1.42874781       3.83007154
Si       1.19883468       7.79314551      -1.84194087
Si      -0.89142273      -1.30954222       3.28066165
Si       2.42614973      -4.96896711       6.31618470
Si       0.17972220       3.18869302       2.95708950
Si      -2.81289803       2.45550522       6.90587357
Si      -1.50825958       4.37649552       3.45691178
Si      -1.83224569      -2.15201381       7.60006852
22
Lattice="5.538357287565345 -0.6442806280395619 -1.4097282263534563 -2.398951712232 10.559604232638085 -2.035612027786274 -4.734088067088153 -5.150610337742829 10.783865427605287" Properties=species:S:1:pos:R:3 unique_starting_index=18 config_type=initial n_minim_iter=20 stress="-2.8531553724970995e-05 5.6508275109622585e-05 -4.096654313770058e-06 5.6508275109622585e-05 -1.4794703798361127e-05 6.027811967782571e-05 -4.096654313770058e-06 6.027811967782571e-05 -2.0812010855938513e-05" pbc="T T T"
Si      -0.05301978       9.28913780      -1.01659710
Si      -1.52223973      -1.25611497       5.69705253
Si      -4.08230213      -3.63846437       9.64978723
Si      -0.04622529      -2.82133974       8.71029304
Si      -5.57207416      -0.37822484       8.96137816
Si       4.15264109       2.11469312       0.07479616
Si       2.19482835       0.77857664       0.34470416
Si      -1.52211589       0.39575543       7.03279959
Si      -1.99526441      -3.42279004       9.30889870
Si      -2.67717212       1.01533530       5.35668264
Si       1.14150563      -0.26395397       2.50745885
Si      -2.95789436       3.50146785       5.06533166
Si      -3.33179570      -2.81502534       6.23756677
Si      -0.51981979       6.76828805      -1.10345818
Si       1.02645567       1.42791470       3.83161184
Si       1.19886486       7.78837217      -1.84218756
Si      -0.89171346      -1.30809771       3.28081327
Si       2.42869088      -4.96603452       6.31918318
Si       0.17928078       3.18765036       2.95893123
Si      -2.81513309       2.45445114       6.90754356
Si      -1.50768936       4.37756984       3.45750484
Si      -1.83307288      -2.15038304       7.59936968
22
Lattice="5.540596384739161 -0.6444779196844718 -1.4099005120522348 -2.4012523382660533 10.549362231186967 -2.034958943432505 -4.734794742935049 -5.1436381977818195 10.786036606360573" Properties=species:S:1:pos:R:3 unique_starting_index=18 config_type=initial n_minim_iter=21 stress="7.018165309829894e-05 0.00015923255630742123 -0.0001301670974566839 0.00015923255630742123 -3.610444070916783e-05 -8.265293258714228e-06 -0.0001301670974566839 -8.265293258714228e-06 4.311523528096177e-05" pbc="T T T"
Si      -0.05391365       9.27848367      -1.01441003
Si      -1.52365716      -1.25304561       5.69667650
Si      -4.07951223      -3.63499677       9.65123911
Si      -0.04350691      -2.81948305       8.70948032
Si      -5.57425922      -0.37643085       8.96102888
Si       4.15218136       2.11137298       0.08075106
Si       2.19320390       0.77789624       0.34546592
Si      -1.52221248       0.39830553       7.03337488
Si      -1.99306003      -3.41485122       9.31364403
Si      -2.67805071       1.01531801       5.35640949
Si       1.14262443      -0.26174047       2.50621216
Si      -2.96000683       3.49956272       5.06759474
Si      -3.33637474      -2.81493734       6.24135322
Si      -0.52051453       6.76181550      -1.10361923
Si       1.02669622       1.42627122       3.83381605
Si       1.19887833       7.78048715      -1.84260552
Si      -0.89204268      -1.30589875       3.28071838
Si       2.43402345      -4.96148586       6.32512699
Si       0.17885458       3.18497932       2.96232377
Si      -2.81814808       2.45245309       6.90964578
Si      -1.50599509       4.37959493       3.45746286
Si      -1.83473610      -2.14901104       7.59801830
