14
Lattice="7.846302912590235 0.7497259383205653 2.1912121315168727 0.6747883785966714 8.652829384330802 0.08278122850509785 -1.7791486600399613 -0.21876353632814052 5.6700024831983535" Properties=species:S:1:pos:R:3 unique_starting_index=20 config_type=initial n_minim_iter=1 energy=-2278.954889184007 free_energy=-2278.954889184007 pbc="T T T"
Si       4.54131896       5.79606638       6.78876268
Si       5.67582662       3.95229803       2.06440443
Si       2.20062367       3.38772541       1.15523316
Si       1.06611601       5.23149376       5.87959141
Si       6.05034963       6.35299118       5.34609653
Si       6.35787935       3.54386674       4.05670217
Si       0.69159300       2.83080060       2.59789931
Si       0.38406328       5.63992505       3.88729367
Si       1.81762890       5.32664405       2.06563808
Si       0.95031729       3.49262086       4.65520383
Si       4.92431373       3.85714774       5.87835777
Si       5.79162534       5.69117093       3.28879201
Si       4.32658947       5.60668865       1.72168881
Si       2.41535317       3.57710313       6.22230704
14
Lattice="7.871296192170496 0.7499789509843393 2.204333535411065 0.6781034641702502 8.646556248098502 0.08224847465750777 -1.7738692932991655 -0.22000101337916406 5.665156097494232" Properties=species:S:1:pos:R:3 unique_starting_index=20 config_type=initial n_minim_iter=2 stress="0.004368141790646541 0.0007387521494620034 0.0016077818763790997 0.0007387521494620034 0.002518070340227353 3.413967588609243e-05 0.0016077818763790997 3.413967588609243e-05 0.002470849108136635" pbc="T T T"
Si       4.56733366       5.79144740       6.79348663
Si       5.69592891       3.95024275       2.07293643
Si       2.20819671       3.38508678       1.15825148
Si       1.07960145       5.22629144       5.87880168
Si       6.07695627       6.34807229       5.35415562
Si       6.38265565       3.54181329       4.06588990
Si       0.69857409       2.82846189       2.59758249
Si       0.39287471       5.63472090       3.88584821
Si       1.82735200       5.32270287       2.06656817
Si       0.96166315       3.48917783       4.65526021
Si       4.94817836       3.85383132       5.88516994
Si       5.81386721       5.68735635       3.29647789
Si       4.34133545       5.60281491       1.72806151
Si       2.43419491       3.57371928       6.22367660
14
Lattice="7.86760668705964 0.7475990677842708 2.203056883994654 0.6762198420650731 8.637345412403118 0.08156256699803938 -1.7724506305562233 -0.21989130518266062 5.659968413704454" Properties=species:S:1:pos:R:3 unique_starting_index=20 config_type=initial n_minim_iter=3 stress="-0.001064583405156078 0.00026975999867559757 0.0029791806120073186 0.00026975999867559757 -0.0012895458285014916 -0.0015338948804352946 0.0029791806120073186 -0.0015338948804352946 -0.00881021753644632" pbc="T T T"
Si       4.56530662       5.78426396       6.78751884
Si       5.69282051       3.94529480       2.07125856
Si       2.20606928       3.38078922       1.15706902
Si       1.07855539       5.21975837       5.87332930
Si       6.07333210       6.33968275       5.34971293
Si       6.37931854       3.53716430       4.06227546
Si       0.69804380       2.82537043       2.59487493
Si       0.39205736       5.62788888       3.88231241
Si       1.82592001       5.31672852       2.06418340
Si       0.96110956       3.48473992       4.65173360
Si       4.94545589       3.84832466       5.88040446
Si       5.81026634       5.68031326       3.29285427
Si       4.33773042       5.59592993       1.72647258
Si       2.43364548       3.56912325       6.21811528
14
Lattice="7.861148451449932 0.74131189558726 2.199827504762807 0.6699452985347715 8.613041109745392 0.08540812468030681 -1.7766041952544296 -0.21524618888095373 5.670767249317727" Properties=species:S:1:pos:R:3 unique_starting_index=20 config_type=initial n_minim_iter=4 stress="0.005673376841388372 0.0018643930597167075 -0.005406182501573498 0.0018643930597167075 -0.005748137470780605 -0.004894148826174809 -0.005406182501573498 -0.004894148826174809 -0.003807013135697351" pbc="T T T"
Si       4.55517522       5.76969308       6.79794394
Si       5.68556514       3.93287130       2.07167212
Si       2.19931434       3.36941374       1.15805893
Si       1.06892442       5.20623551       5.88433076
Si       6.06084499       6.31982873       5.35711922
Si       6.36991637       3.52748803       4.06350065
Si       0.69364457       2.81927808       2.59888366
Si       0.38457318       5.61161879       3.89250223
Si       1.81998673       5.30229802       2.06805089
Si       0.95438185       3.47532186       4.66351117
Si       4.93450283       3.83680879       5.88795199
Si       5.80010771       5.66378495       3.29249171
Si       4.32730578       5.57818848       1.72808925
Si       2.42718378       3.56091834       6.22791363
14
Lattice="7.833815522655363 0.7298665536355476 2.21752847242008 0.6502693542046859 8.588970088208198 0.11115499861063538 -1.7644350172738021 -0.19484741415443274 5.689351096107402" Properties=species:S:1:pos:R:3 unique_starting_index=20 config_type=initial n_minim_iter=5 stress="-0.0020250813386257535 0.00014070986200573406 0.0005614428619250972 0.00014070986200573406 -0.0027555705833903626 0.00033547438275256076 0.0005614428619250972 0.00033547438275256076 -0.0012134704325896238" pbc="T T T"
Si       4.53745025       5.76667572       6.84541626
Si       5.66012307       3.91882865       2.09587179
Si       2.18219961       3.35731351       1.17261831
Si       1.05952678       5.20516058       5.92216278
Si       6.03123047       6.30438366       5.40260953
Si       6.34385488       3.52165419       4.09206724
Si       0.68841939       2.81960556       2.61542503
Si       0.37579498       5.60233503       3.92596732
Si       1.80593185       5.29140939       2.09132606
Si       0.94909345       3.47389461       4.69744291
Si       4.91371801       3.83257984       5.92670851
Si       5.77055641       5.65009462       3.32059166
Si       4.29759781       5.55963594       1.75454463
Si       2.42205205       3.56435328       6.26348994
14
Lattice="7.828837381436535 0.7138531908839811 2.2083191057448417 0.6307730707972435 8.601096978652274 0.11170239001231762 -1.771404644254781 -0.1902929049313546 5.694560099763976" Properties=species:S:1:pos:R:3 unique_starting_index=20 config_type=initial n_minim_iter=6 stress="0.001212448458546883 -0.0004981231295132945 -0.00484860396702421 -0.0004981231295132945 0.004496775059617306 0.0037395905850398335 -0.00484860396702421 0.0037395905850398335 -0.005591594895836504" pbc="T T T"
Si       4.51607552       5.76843792       6.84834504
Si       5.65080827       3.91372618       2.09014318
Si       2.17213029       3.35621935       1.16623655
Si       1.03739754       5.21093108       5.92443841
Si       6.01049024       6.29885779       5.39651471
Si       6.32944576       3.52131778       4.08208664
Si       0.67771557       2.82579948       2.61806688
Si       0.35876005       5.60333948       3.93249496
Si       1.79351390       5.29721145       2.08825576
Si       0.93543193       3.46962445       4.70443649
Si       4.89469190       3.82744582       5.92632584
Si       5.75277388       5.65503281       3.31014510
Si       4.27820290       5.55995421       1.75022437
Si       2.41000291       3.56470305       6.26435723
14
Lattice="7.802853228317716 0.670652510690482 2.22530663052813 0.5940649602391156 8.575012427101065 0.0741175069592101 -1.7597802759103398 -0.20794394051272017 5.728342696816114" Properties=species:S:1:pos:R:3 unique_starting_index=20 config_type=initial n_minim_iter=7 stress="-0.001729190018333823 -0.002893180928472789 -0.00234271282958365 -0.002893180928472789 0.0013199490059013282 -0.001279637627744281 -0.00234271282958365 -0.001279637627744281 0.0039450706824267715" pbc="T T T"
Si       4.48412004       5.70737145       6.87829229
Si       5.62390559       3.87483449       2.09274973
Si       2.15301787       3.33034955       1.14947455
Si       1.01323232       5.16288651       5.93501710
Si       5.97264807       6.22739609       5.40113634
Si       6.29691680       3.48500836       4.08814773
Si       0.66448985       2.81032490       2.62663050
Si       0.34022111       5.55271263       3.93961910
Si       1.77261967       5.26858653       2.07430756
Si       0.92344209       3.41774161       4.72949760
Si       4.86451824       3.76913447       5.95345927
Si       5.71369582       5.61997938       3.29826923
Si       4.23754905       5.52176579       1.73876923
Si       2.39958886       3.51595521       6.28899760
14
Lattice="7.783323965608516 0.7215779014318748 2.2583558322172927 0.6563625479747089 8.494602733501448 0.07488691685629845 -1.7360529271271543 -0.22021503049307223 5.7438692114576515" Properties=species:S:1:pos:R:3 unique_starting_index=20 config_type=initial n_minim_iter=8 stress="-0.002270665618574651 0.0023262822840129987 -0.004017646482859206 0.0023262822840129987 0.0015663683860085934 0.002232183244998591 -0.004017646482859206 0.002232183244998591 0.003892254220863939" pbc="T T T"
Si       4.53419733       5.68712697       6.93119450
Si       5.63696035       3.88273346       2.12200466
Si       2.16943626       3.30883864       1.14591746
Si       1.06667324       5.11323214       5.95510730
Si       6.01205063       6.19505634       5.43006509
Si       6.30684812       3.52726372       4.11128209
Si       0.69158296       2.80090927       2.64704687
Si       0.39678547       5.46870188       3.96582987
Si       1.81613815       5.22979162       2.08635288
Si       0.96037406       3.35213789       4.76099605
Si       4.88749544       3.76617399       5.99075908
Si       5.74325953       5.64382771       3.31611591
Si       4.25793439       5.49877165       1.75643057
Si       2.44569920       3.49719396       6.32068139
14
Lattice="7.796139537801868 0.6831330128583737 2.330579392118048 0.6453022983716474 8.35328234395719 0.01770538011772493 -1.684895458045425 -0.25591668302673176 5.753218717906417" Properties=species:S:1:pos:R:3 unique_starting_index=20 config_type=initial n_minim_iter=9 stress="-0.005974000453663981 0.0018332127928053833 -0.00021589194057915518 0.0018332127928053833 -0.00023042006782529451 -0.004287099336598185 -0.00021589194057915518 -0.004287099336598185 0.005081663853068175" pbc="T T T"
Si       4.59025063       5.54488169       6.98493702
Si       5.63314705       3.80924021       2.14736192
Si       2.16629575       3.23561698       1.11656647
Si       1.12339933       4.97125846       5.95414157
Si       6.03902457       6.01517915       5.44080951
Si       6.32852010       3.49175561       4.14945252
Si       0.71752180       2.76531953       2.66069398
Si       0.42802628       5.28874307       3.95205097
Si       1.83037288       5.12519762       2.07916624
Si       0.99656939       3.18712655       4.78814519
Si       4.92617349       3.65530106       6.02233725
Si       5.75997699       5.59337213       3.31335830
Si       4.24146566       5.40188776       1.75632460
Si       2.51508072       3.37861092       6.34517889
14
Lattice="7.820609062032704 0.661906736754408 2.361100604442467 0.6328219194796008 8.272401549627658 0.014937163932220006 -1.6648150958564685 -0.25457907886228975 5.7420853927165725" Properties=species:S:1:pos:R:3 unique_starting_index=20 config_type=initial n_minim_iter=10 stress="-0.0059955932554960675 0.0010519871818513312 0.005870695411418877 0.0010519871818513312 -0.0008584145999224003 -0.002569538018616382 0.005870695411418877 -0.002569538018616382 -0.01578091265992482" pbc="T T T"
Si       4.62108542       5.48360003       7.01044639
Si       5.64089601       3.76999294       2.16849209
Si       2.16753047       3.19612918       1.10767677
Si       1.14771987       4.90973627       5.94963107
Si       6.05859730       5.92746908       5.44916735
Si       6.34936138       3.47680603       4.16628299
Si       0.73001858       2.75226013       2.66895581
Si       0.43925450       5.20292318       3.95184017
Si       1.83534631       5.07127892       2.08762186
Si       1.01274284       3.11533358       4.79998427
Si       4.95326958       3.60845028       6.03050130
Si       5.77587305       5.56439563       3.31813889
Si       4.24025959       5.35142273       1.77006161
Si       2.54835629       3.32830647       6.34806155
14
Lattice="7.864848030573939 0.6056593140397132 2.361463853111848 0.5834861930795384 8.124700071287547 0.033658009149561074 -1.6736140175619811 -0.22767961993086536 5.735024728666147" Properties=species:S:1:pos:R:3 unique_starting_index=20 config_type=initial n_minim_iter=11 stress="0.0012553232522360053 0.003277409370207143 0.006091889471006651 0.003277409370207143 -0.002364113125841178 -0.002451350701528902 0.006091889471006651 -0.002451350701528902 -0.008083613199217268" pbc="T T T"
Si       4.61413580       5.38123783       7.01283510
Si       5.64175045       3.68872950       2.17018842
Si       2.16058441       3.12144194       1.11731149
Si       1.13296975       4.81395027       5.95995817
Si       6.04357091       5.77436327       5.44636070
Si       6.35903199       3.42152019       4.17526904
Si       0.73114929       2.72831649       2.68378589
Si       0.41568821       5.08115957       3.95487755
Si       1.81421077       4.97502087       2.10433495
Si       1.00024715       3.03541717       4.79279342
Si       4.96050943       3.52765889       6.02581164
Si       5.77447305       5.46726260       3.33735318
Si       4.23380482       5.26165259       1.78954000
Si       2.54091539       3.24102718       6.34060659
14
Lattice="7.916285399309139 0.5034817811898025 2.3695315033998114 0.489724098959221 7.87388747985362 0.0678760232575403 -1.6907199002088955 -0.1786265404208728 5.768806560936934" Properties=species:S:1:pos:R:3 unique_starting_index=20 config_type=initial n_minim_iter=12 stress="0.009700521677134092 0.003179577497328459 0.0047491601403933615 0.003179577497328459 -0.018120637570087618 0.003138630291926805 0.0047491601403933615 0.003138630291926805 -0.0009589871789895453" pbc="T T T"
Si       4.57315579       5.21254853       7.08010041
Si       5.63215923       3.54514705       2.17955522
Si       2.14213381       2.98619419       1.12611367
Si       1.08313037       4.65359567       6.02665886
Si       5.99745958       5.51015307       5.48064662
Si       6.34391039       3.33138352       4.20591109
Si       0.71783001       2.68858965       2.72556747
Si       0.37137921       4.86735920       4.00030300
Si       1.77065624       4.81925617       2.14039977
Si       0.97031585       2.89542249       4.83532557
Si       4.94463335       3.37948655       6.06581432
Si       5.74497375       5.30332024       3.37088852
Si       4.19663725       5.09009909       1.82150526
Si       2.51865235       3.10864363       6.38470883
14
Lattice="7.91791732795746 0.45092763528590235 2.361391106719078 0.44327035491550665 7.882800191333577 0.023833428797932016 -1.6965179199425156 -0.19780566225945517 5.778987922049215" Properties=species:S:1:pos:R:3 unique_starting_index=20 config_type=initial n_minim_iter=13 stress="0.018444831050641906 -0.001822495386388727 -0.00010105348700474588 -0.001822495386388727 0.002169005712551883 0.003616056004212037 -0.00010105348700474588 0.003616056004212037 0.012479356572556125" pbc="T T T"
Si       4.53754517       5.17911852       7.05247791
Si       5.61514656       3.51961363       2.15376196
Si       2.12712459       2.95680365       1.11173454
Si       1.04952321       4.61630853       6.01045050
Si       5.95628066       5.43987769       5.45060521
Si       6.31167242       3.31744982       4.18667527
Si       0.70838911       2.69604447       2.71360724
Si       0.35299734       4.81847234       3.97753719
Si       1.74203710       4.81280179       2.11748827
Si       0.95330673       2.85226212       4.82715193
Si       4.92263267       3.32312037       6.04672418
Si       5.71136304       5.28366005       3.33706053
Si       4.16868904       5.07997258       1.79243437
Si       2.49598072       3.05594959       6.37177808
14
Lattice="7.912554451450543 0.4617799283855592 2.3505091106031637 0.4676314106056438 7.86783553623022 -0.017486816719985948 -1.704994788010093 -0.22900589099736116 5.795129681398786" Properties=species:S:1:pos:R:3 unique_starting_index=20 config_type=initial n_minim_iter=14 stress="0.013123903039059288 0.0009547206435592538 -0.0014012336170710496 0.0009547206435592538 0.002244871702126479 0.0012009866046629493 -0.0014012336170710496 0.0012009866046629493 0.0220215504423052" pbc="T T T"
Si       4.53694977       5.16221203       7.03037158
Si       5.62267890       3.52533941       2.12221035
Si       2.13824130       2.93839754       1.09778040
Si       1.05251217       4.57527017       6.00594163
Si       5.95785135       5.40075119       5.42752845
Si       6.29729485       3.34337816       4.17044597
Si       0.71733972       2.69985838       2.70062352
Si       0.37789623       4.75723142       3.95770601
Si       1.75378395       4.79975916       2.09407308
Si       0.95946682       2.80714086       4.82735497
Si       4.92140712       3.30085041       6.03407890
Si       5.71572426       5.29346871       3.30079701
Si       4.18369358       5.08468539       1.76543099
Si       2.49149750       3.01592419       6.36272098
14
Lattice="7.94715563402722 0.4513128088358575 2.318759917281104 0.46590922987938754 7.862176345074009 -0.04126104019675593 -1.7280903617982257 -0.24207554209968982 5.773098357506209" Properties=species:S:1:pos:R:3 unique_starting_index=20 config_type=initial n_minim_iter=15 stress="0.00352560876085863 0.0001399424456407498 -0.004867975317719016 0.0001399424456407498 0.002716998412003327 0.00030096567332263765 -0.004867975317719016 0.00030096567332263765 0.007461197053027594" pbc="T T T"
Si       4.52814787       5.15299689       6.96080572
Si       5.65064573       3.51730442       2.07802278
Si       2.15682664       2.91841672       1.08979152
Si       1.03432877       4.55410919       5.97257446
Si       5.97132070       5.36222500       5.38438559
Si       6.29408028       3.35587829       4.13718707
Si       0.71365381       2.70918861       2.66621165
Si       0.39089422       4.71553532       3.91341016
Si       1.74752012       4.79016623       2.07175969
Si       0.95659921       2.78753610       4.79050777
Si       4.93745438       3.28124738       5.97883755
Si       5.72837529       5.28387752       3.26008946
Si       4.20905366       5.07919468       1.72861178
Si       2.47592084       2.99221893       6.32198545
14
Lattice="7.993737154311464 0.4722030309896343 2.2858705980644 0.4871701575710576 7.908781781798003 -0.03774308105805163 -1.7541148971083278 -0.24298917802059222 5.74158765840266" Properties=species:S:1:pos:R:3 unique_starting_index=20 config_type=initial n_minim_iter=16 stress="-0.00887686936228874 -0.0012185154865270913 0.001554434404107546 -0.0012185154865270913 0.004483081928881563 0.0016906107484800665 0.001554434404107546 0.0016906107484800665 -0.005335685756082542" pbc="T T T"
Si       4.53188610       5.20220764       6.89224138
Si       5.70728588       3.54213577       2.04411020
Si       2.19490631       2.93578799       1.09747379
Si       1.01950654       4.59585987       5.94560498
Si       6.02714043       5.40583759       5.37059526
Si       6.30232109       3.39560611       4.11601722
Si       0.69965198       2.73215805       2.61911992
Si       0.42447133       4.74238953       3.87369795
Si       1.75139721       4.81340075       2.06208026
Si       0.96806997       2.83323918       4.75552247
Si       4.97539521       3.32459489       5.92763492
Si       5.75872244       5.30475646       3.23419270
Si       4.25747557       5.10545438       1.70155080
Si       2.46931685       3.03254126       6.28816437
14
Lattice="8.01244823598125 0.4451492687252489 2.3047562543068305 0.4673783109398228 7.861354884475221 -0.05100158369611571 -1.7412489151426485 -0.24733345261002176 5.733380749744945" Properties=species:S:1:pos:R:3 unique_starting_index=20 config_type=initial n_minim_iter=17 stress="-0.004888510443184466 -0.002239586575248655 0.0041351932827617685 -0.002239586575248655 -0.0059646256720218265 -0.00148405418929354 0.0041351932827617685 -0.00148405418929354 -0.006848814905583347" pbc="T T T"
Si       4.53827611       5.15374067       6.88868580
Si       5.71725844       3.50547639       2.04934447
Si       2.20030152       2.90543003       1.09844962
Si       1.02131919       4.55369431       5.93779095
Si       6.04670107       5.33267174       5.37714682
Si       6.29276404       3.38305504       4.12982541
Si       0.69187656       2.72649896       2.60998860
Si       0.44581359       4.67611566       3.85731001
Si       1.74143762       4.76913836       2.06466130
Si       0.98224027       2.79041097       4.74974080
Si       4.99714001       3.29003234       5.92247412
Si       5.75633736       5.26875973       3.23739462
Si       4.24778379       5.06333698       1.69843239
Si       2.49079384       2.99583372       6.28870303
14
Lattice="7.994764873554543 0.4926560076214386 2.3182064393461626 0.506892115404029 7.933225848528328 -0.03442272484639774 -1.7249085765756949 -0.24755157154336707 5.719362688559423" Properties=species:S:1:pos:R:3 unique_starting_index=20 config_type=initial n_minim_iter=18 stress="-0.0030388716586162616 -0.0010918116111177526 0.002478417610388323 -0.0010918116111177526 0.0010800664825186953 -0.0015785738168810463 0.002478417610388323 -0.0015785738168810463 -0.0055362756746624745" pbc="T T T"
Si       4.56536467       5.22401736       6.89899750
Si       5.72323100       3.56808055       2.06877771
Si       2.21138374       2.95431293       1.10414890
Si       1.05351742       4.61024973       5.93436869
Si       6.08663700       5.42949418       5.39110838
Si       6.29747929       3.43520968       4.15104935
Si       0.69011142       2.74883610       2.61203802
Si       0.47926912       4.74312061       3.85209705
Si       1.76184586       4.81346259       2.07880718
Si       1.00862430       2.84250758       4.74763778
Si       5.01490255       3.36486770       5.92433922
Si       5.76812411       5.33582270       3.25550862
Si       4.25485888       5.11691504       1.71652104
Si       2.52188953       3.06141525       6.28662536
14
Lattice="7.9665603554996345 0.4980238092899639 2.3185438360983333 0.5021343646713952 7.949360776904446 -0.010382834105732304 -1.7230660497626689 -0.2314787133581402 5.730503339488059" Properties=species:S:1:pos:R:3 unique_starting_index=20 config_type=initial n_minim_iter=19 stress="0.00014105560359453152 0.0008901800037549433 0.0005648062034496601 0.0008901800037549433 0.0025578222887733507 0.0016331147249349697 0.0005648062034496601 0.0016331147249349697 0.002442888619376222" pbc="T T T"
Si       4.54525528       5.24992119       6.92825085
Si       5.70352215       3.58749546       2.08269282
Si       2.20037339       2.96598468       1.11041349
Si       1.04210652       4.62841041       5.95597152
Si       6.06970819       5.45286993       5.41047907
Si       6.27037134       3.45787890       4.16809144
Si       0.67592048       2.76303594       2.62818527
Si       0.47525733       4.75802697       3.87057290
Si       1.75588436       4.82178451       2.09659222
Si       1.00641821       2.86154464       4.76649734
Si       4.98974431       3.39412136       5.94207212
Si       5.73921046       5.35436123       3.27216700
Si       4.23031178       5.12713734       1.74261754
Si       2.51531689       3.08876853       6.29604680
14
Lattice="7.933589075866952 0.452949943658869 2.31658568649597 0.4390469191414815 7.986221491596577 0.014690306717995856 -1.7214608214377591 -0.20323751570085205 5.741296610791057" Properties=species:S:1:pos:R:3 unique_starting_index=20 config_type=initial n_minim_iter=20 stress="0.0019200179482061442 0.001482914395508562 -0.0008362873736557069 0.001482914395508562 -0.004974007044551935 0.0003039565901437677 -0.0008362873736557069 0.0003039565901437677 0.0006405053729961978" pbc="T T T"
Si       4.47984448       5.25671605       6.95056916
Si       5.65948331       3.58121092       2.10097958
Si       2.17133070       2.97921786       1.12200344
Si       0.99169186       4.65472300       5.97159303
Si       6.01767293       5.45397430       5.43738738
Si       6.21039203       3.45484380       4.18365325
Si       0.63350224       2.78195962       2.63518523
Si       0.44078314       4.78109012       3.88891935
Si       1.71707582       4.81861883       2.11187973
Si       0.98428822       2.89210475       4.77876452
Si       4.93409936       3.41731509       5.96069288
Si       5.66688695       5.34382917       3.29380808
Si       4.16181659       5.11158269       1.76562607
Si       2.48935858       3.12435123       6.30694654
14
Lattice="7.9514192339881085 0.3716198420910166 2.289648626527821 0.3355462537281529 8.115462578553673 0.02439652588706031 -1.7435796150963307 -0.17708303840960796 5.735490886667271" Properties=species:S:1:pos:R:3 unique_starting_index=20 config_type=initial n_minim_iter=21 stress="0.0016519322366371357 -0.0009877785501710534 -0.007129599358917559 -0.0009877785501710534 0.002269149109795967 0.0017459614062315537 -0.007129599358917559 0.0017459614062315537 0.00019555633487157407" pbc="T T T"
Si       4.39042374       5.30503485       6.92354472
Si       5.62400873       3.60049700       2.08733391
Si       2.15296213       3.00496453       1.12599131
Si       0.91937715       4.70950238       5.96220212
Si       5.96151828       5.47020315       5.42855390
Si       6.16089350       3.47601198       4.17800718
Si       0.58186759       2.83979624       2.62098214
Si       0.38249237       4.83398740       3.87152886
Si       1.66459099       4.85344827       2.10567894
Si       0.94641852       2.94935097       4.75984843
Si       4.87879488       3.45655111       5.94385710
Si       5.59696735       5.36064841       3.28968761
Si       4.10539397       5.11968922       1.76830898
Si       2.43799190       3.19031017       6.28122706
