24
Lattice="9.398442609880455 6.992245970760289e-14 2.1350057571578962e-15 4.699221304940167 8.13929005616663 -3.146809064066578e-15 4.699221304940205 2.7130966853889054 11.46901879108899" Properties=species:S:1:pos:R:3 unique_starting_index=24 config_type=initial n_minim_iter=1 energy=-3907.5559113305653 free_energy=-3907.5559113305653 pbc="T T T"
Si      10.18855444       4.41816537      10.92896228
Si       9.87636361       6.61446429      10.92896228
Si       8.13040837       5.24594964      10.92896228
Si      10.45020307       4.77587837       8.83534119
Si       9.43575076       6.66220215       8.83534119
Si       8.30937260       4.84049879       8.83534119
Si      11.23933329       4.59951135       1.81203798
Si       9.19392396       7.43379248       1.81203798
Si       7.76206917       4.24527548       1.81203798
Si      10.42844662       6.20566458       3.09699869
Si       8.20839780       5.92846741       3.09699869
Si       9.55848200       4.14444732       3.09699869
Si      10.91260770       8.15506965       9.22201640
Si       6.27808294       5.37306066       9.22201640
Si      11.00463578       2.75044899       9.22201640
Si      12.43114658       4.29370643       9.45521539
Si       8.86285215       8.61883553       9.45521539
Si       6.90132769       3.36603735       9.45521539
Si      10.32630194      10.07440714       8.53454887
Si       4.90904080       3.90563624       8.53454887
Si      12.95998368       2.29853592       8.53454887
Si       4.88378279       1.46837943       1.49538798
Si       5.68489639       3.49529025       1.49538798
Si       3.52898332       3.17561957       1.49538798
24
Lattice="9.411417729703803 6.999981061996454e-14 2.3669448460219623e-15 4.705708864851841 8.150526839550794 -2.9509938519504096e-15 4.705708864851881 2.716842279850294 11.49479171004298" Properties=species:S:1:pos:R:3 unique_starting_index=24 config_type=initial n_minim_iter=2 stress="0.0044313309563279 6.062680518847876e-16 6.325837367952592e-16 6.062680518847876e-16 0.004431330956327481 5.729642305507219e-16 6.325837367952592e-16 5.729642305507219e-16 0.0007965649547356262" pbc="T T T"
Si      10.20300933       4.42439115      10.95279867
Si       9.88969472       6.62386970      10.95279867
Si       8.14154773       5.25279202      10.95279867
Si      10.46442595       4.78250226       8.85536542
Si       9.44885309       6.67120758       8.85536542
Si       8.32097274       4.84734303       8.85536542
Si      11.25473205       4.60561474       1.81626896
Si       9.20688913       7.44407650       1.81626896
Si       7.77263060       4.25136163       1.81626896
Si      10.44270455       6.21415866       3.10383036
Si       8.21986299       5.93656810       3.10383036
Si       9.57168425       4.15032612       3.10383036
Si      10.92848215       8.16597688       9.24264812
Si       6.28665003       5.38135473       9.24264812
Si      11.01911961       2.75372126       9.24264812
Si      12.44890086       4.29992154       9.47659883
Si       8.87454280       8.63110362       9.47659883
Si       6.91080812       3.37002770       9.47659883
Si      10.34106935      10.08808112       8.55374719
Si       4.91576533       3.91158820       8.55374719
Si      12.97741711       2.30138356       8.55374719
Si       4.89042067       1.47077968       1.49920668
Si       5.69247389       3.49983870       1.49920668
Si       3.53423063       3.17990765       1.49920668
24
Lattice="9.385749148397098 7.034990240437694e-14 1.1376217818115907e-15 4.692874574198486 8.128297196060075 -1.427156959679526e-15 4.692874574198525 2.7094323986867237 11.546522164580695" Properties=species:S:1:pos:R:3 unique_starting_index=24 config_type=initial n_minim_iter=3 stress="-0.004789931489688955 1.6683858285982037e-15 3.8201151625919964e-16 1.6683858285982037e-15 -0.004789931489691294 1.0813786900375893e-15 3.8201151625919964e-16 1.0813786900375893e-15 0.008354996344716478" pbc="T T T"
Si      10.17729386       4.41302268      10.99817893
Si       9.86106068       6.60728369      10.99817893
Si       8.11889150       5.23628721      10.99817893
Si      10.43468380       4.76936235       8.89675283
Si       9.42376650       6.65202008       8.89675283
Si       8.29879573       4.83521115       8.89675283
Si      11.22330187       4.59168117       1.82535074
Si       9.18333389       7.42382395       1.82535074
Si       7.75061028       4.24108847       1.82535074
Si      10.41341043       6.19678075       3.11701663
Si       8.19822259       5.91988760       3.11701663
Si       9.54561301       4.13992523       3.11701663
Si      10.90209204       8.14195224       9.28364785
Si       6.26931386       5.37051255       9.28364785
Si      10.98584013       2.74412880       9.28364785
Si      12.41783121       4.28923206       9.51967128
Si       8.84799783       8.60954126       9.51967128
Si       6.89141700       3.35782027       9.51967128
Si      10.31598472      10.05917454       8.59267052
Si       4.90200431       3.90431756       8.59267052
Si      12.93925702       2.29310148       8.59267052
Si       4.87664668       1.46907923       1.50794565
Si       5.67516494       3.48876029       1.50794565
Si       3.52681070       3.17045686       1.50794565
24
Lattice="9.387845865994985 6.901789568086581e-14 1.0452400832611125e-15 4.693922932997431 8.130113006764404 -1.3271236703299599e-15 4.693922932997468 2.710037668921499 11.507872623372469" Properties=species:S:1:pos:R:3 unique_starting_index=24 config_type=initial n_minim_iter=4 stress="-0.0008797482953010669 1.5795778836898702e-15 5.684280993040728e-16 1.5795778836898702e-15 -0.0008797482953024664 7.414087205843983e-16 5.684280993040728e-16 7.414087205843983e-16 -0.0008276795165680479" pbc="T T T"
Si      10.18262787       4.41455442      10.95654908
Si       9.86126059       6.61113721      10.95654908
Si       8.11964774       5.23453358      10.95654908
Si      10.43581984       4.76998170       8.86957160
Si       9.42685555       6.65269424       8.86957160
Si       8.30086081       4.83754927       8.86957160
Si      11.22476995       4.59075530       1.82051429
Si       9.18759511       7.42555828       1.82051429
Si       7.75117113       4.24391162       1.82051429
Si      10.41460338       6.19758144       3.10545516
Si       8.20112614       5.92052038       3.10545516
Si       9.54780667       4.14212339       3.10545516
Si      10.90912290       8.14128990       9.25189083
Si       6.27056548       5.37693262       9.25189083
Si      10.98384782       2.74200269       9.25189083
Si      12.42396586       4.29145193       9.48850893
Si       8.84720148       8.61374409       9.48850893
Si       6.89236886       3.35502919       9.48850893
Si      10.32240682      10.05935249       8.56429309
Si       4.90283258       3.90979029       8.56429309
Si      12.93829679       2.29108242       8.56429309
Si       4.87749971       1.47246957       1.50456404
Si       5.67389902       3.48780387       1.50456404
Si       3.53036866       3.16983876       1.50456404
24
Lattice="9.388301410912062 6.944064784328233e-14 1.106527024330004e-15 4.6941507054559715 8.130507520235158 -1.3868933440297227e-15 4.694150705456009 2.7101691734117512 11.525725635837315" Properties=species:S:1:pos:R:3 unique_starting_index=24 config_type=initial n_minim_iter=5 stress="6.231676394787706e-05 1.9294367926302163e-15 4.0924579080413297e-16 1.9294367926302163e-15 6.231676394786899e-05 7.861860242706594e-16 4.0924579080413297e-16 7.861860242706594e-16 -0.0007140593505507878" pbc="T T T"
Si      10.18944468       4.41511648      10.97239629
Si       9.85827652       6.61675971      10.97239629
Si       8.11718163       5.22913805      10.97239629
Si      10.43904696       4.76751206       8.88488893
Si       9.42829185       6.65672383       8.88488893
Si       8.29756402       4.83677834       8.88488893
Si      11.22285904       4.58456386       1.82686206
Si       9.19482360       7.42699910       1.82686206
Si       7.74722019       4.24945127       1.82686206
Si      10.41187512       6.19612213       3.10722910
Si       8.20466516       5.91888729       3.10722910
Si       9.54836255       4.14600481       3.10722910
Si      10.91228452       8.13615171       9.26597901
Si       6.27434555       5.38223976       9.26597901
Si      10.97827275       2.74262276       9.26597901
Si      12.41957192       4.28785374       9.50579677
Si       8.85342566       8.61173792       9.50579677
Si       6.89190525       3.36142257       9.50579677
Si      10.33015539      10.05177615       8.57586240
Si       4.90643070       3.92028892       8.57586240
Si      12.92831674       2.28894917       8.57586240
Si       4.87949373       1.47785285       1.50542614
Si       5.66869550       3.48683910       1.50542614
Si       3.53426149       3.16581476       1.50542614
24
Lattice="9.380137318235922 6.586090233439949e-14 1.0761537442541609e-15 4.690068659117904 8.123437208578768 -1.451218281841804e-15 4.690068659117941 2.7078124028596204 11.551752733735926" Properties=species:S:1:pos:R:3 unique_starting_index=24 config_type=initial n_minim_iter=6 stress="0.0036981743937959475 2.571066945167028e-15 1.9713888666859941e-16 2.571066945167028e-15 0.003698174393796149 1.1535715019008383e-15 1.9713888666859941e-16 1.1535715019008383e-15 0.0012570568481473057" pbc="T T T"
Si      10.19339317       4.41408248      11.00438699
Si       9.84086955       6.62069620      11.00438699
Si       8.10614783       5.21209493      11.00438699
Si      10.42546214       4.76796722       8.90228311
Si       9.41836190       6.64473146       8.90228311
Si       8.29658651       4.83417494       8.90228311
Si      11.20842151       4.56206236       1.83909863
Si       9.20520105       7.42574659       1.83909863
Si       7.72678799       4.25906466       1.83909863
Si      10.39468289       6.18565184       3.10699958
Si       8.20600063       5.90923353       3.10699958
Si       9.53972704       4.15198825       3.10699958
Si      10.91482560       8.11597085       9.28897221
Si       6.27422397       5.39453083       9.28897221
Si      10.95136098       2.73637194       9.28897221
Si      12.40535062       4.26999948       9.53209024
Si       8.85967036       8.60834904       9.53209024
Si       6.87538956       3.36852508       9.53209024
Si      10.33264304      10.03847762       8.59209468
Si       4.90037555       3.92909255       8.59209468
Si      12.90739196       2.27930344       8.59209468
Si       4.88264353       1.48186441       1.49965373
Si       5.65548239       3.48756113       1.49965373
Si       3.53207865       3.15401086       1.49965373
24
Lattice="9.362696583672959 6.772411606531649e-14 1.0772129980512365e-15 4.681348291836421 8.108333089386578 -1.4992813131765413e-15 4.681348291836459 2.7027776964622254 11.572281951032497" Properties=species:S:1:pos:R:3 unique_starting_index=24 config_type=initial n_minim_iter=7 stress="-0.002375176157990941 3.5054961409607093e-15 3.1808406167482984e-16 3.5054961409607093e-15 -0.0023751761579919764 1.41349631697774e-15 3.1808406167482984e-16 1.41349631697774e-15 1.2905998892032761e-05" pbc="T T T"
Si      10.18566480       4.41420562      11.02267683
Si       9.80974563       6.61394166      11.02267683
Si       8.09267792       5.18851809      11.02267683
Si      10.41307513       4.75604292       8.92077108
Si       9.40000068       6.63996613       8.92077108
Si       8.27501254       4.82065632       8.92077108
Si      11.18709504       4.53347590       1.84737705
Si       9.20573942       7.42157056       1.84737705
Si       7.69525389       4.26161892       1.84737705
Si      10.36902792       6.16789010       3.10772166
Si       8.19932876       5.89589654       3.10772166
Si       9.51973167       4.15287873       3.10772166
Si      10.90579694       8.09302362       9.30679650
Si       6.26372972       5.39818539       9.30679650
Si      10.91856169       2.72545637       9.30679650
Si      12.37936306       4.24669979       9.55267743
Si       8.85796080       8.59749300       9.55267743
Si       6.85076449       3.37247258       9.55267743
Si      10.30975576      10.02613055       8.60571135
Si       4.88763059       3.91544512       8.60571135
Si      12.89070200       2.27508970       8.60571135
Si       4.88104193       1.47442971       1.49739688
Si       5.64528110       3.48989145       1.49739688
Si       3.51772044       3.14401112       1.49739688
24
Lattice="9.361179821492243 6.855956857952759e-14 1.0511291819642545e-15 4.680589910746065 8.107019534806582 -1.4701629319340068e-15 4.680589910746101 2.70233984493556 11.589169378456146" Properties=species:S:1:pos:R:3 unique_starting_index=24 config_type=initial n_minim_iter=8 stress="-0.0027652713130999107 4.762317919208747e-15 1.144915406134157e-16 4.762317919208747e-15 -0.002765271313099943 1.879264400090657e-15 1.144915406134157e-16 1.879264400090657e-15 -0.0018033212831330258" pbc="T T T"
Si      10.19533370       4.42854763      11.03490820
Si       9.78945711       6.61514417      11.03490820
Si       8.09874726       5.17034647      11.03490820
Si      10.41421962       4.75630655       8.93833975
Si       9.39616660       6.64082548       8.93833975
Si       8.27315185       4.81690623       8.93833975
Si      11.18897457       4.50814008       1.85285921
Si       9.22370759       7.43586618       1.85285921
Si       7.67085590       4.27003200       1.85285921
Si      10.36298601       6.15676075       3.10996636
Si       8.20895449       5.89622877       3.10996636
Si       9.51159756       4.16104875       3.10996636
Si      10.91582339       8.10188231       9.31714070
Si       6.24801111       5.40243921       9.31714070
Si      10.91970356       2.70971675       9.31714070
Si      12.37792797       4.22511558       9.57115415
Si       8.87433730       8.60704228       9.57115415
Si       6.83127280       3.38188041       9.57115415
Si      10.30552454      10.01792105       8.62188184
Si       4.89382232       3.91588552       8.62188184
Si      12.88419121       2.28023169       8.62188184
Si       4.89051393       1.46713032       1.49347810
Si       5.64534980       3.50174414       1.49347810
Si       3.50590461       3.13814427       1.49347810
24
Lattice="9.359927898388774 7.024895708673413e-14 1.1977622712293574e-15 4.679963949194329 8.105935337595401 -1.3968454736800265e-15 4.679963949194366 2.701978445865165 11.630470024433697" Properties=species:S:1:pos:R:3 unique_starting_index=24 config_type=initial n_minim_iter=9 stress="0.0005114640927232673 3.894584388077699e-15 5.442818350425343e-16 3.894584388077699e-15 0.0005114640927241129 1.4974041284694224e-15 5.442818350425343e-16 1.4974041284694224e-15 0.0009044461929498438" pbc="T T T"
Si      10.19994552       4.43622166      11.07801701
Si       9.77800145       6.61530111      11.07801701
Si       8.10183533       5.16034711      11.07801701
Si      10.41394541       4.74997787       8.97298596
Si       9.39928065       6.64375234       8.97298596
Si       8.26655623       4.81813965       8.97298596
Si      11.18764798       4.49674612       1.86129968
Si       9.23173449       7.44041430       1.86129968
Si       7.66039982       4.27470944       1.86129968
Si      10.36192954       6.14916905       3.12104750
Si       8.21355349       5.89910969       3.12104750
Si       9.50429927       4.16359114       3.12104750
Si      10.92127929       8.10029859       9.34622107
Si       6.24415086       5.40795602       9.34622107
Si      10.91435214       2.70361527       9.34622107
Si      12.38228547       4.21835511       9.60743708
Si       8.87550944       8.61419622       9.60743708
Si       6.82198739       3.37931854       9.60743708
Si      10.30189567      10.01440658       8.65514825
Si       4.89617653       3.91450007       8.65514825
Si      12.88171010       2.28296322       8.65514825
Si       4.89715391       1.47681163       1.48979827
Si       5.63239362       3.50265388       1.48979827
Si       3.51034292       3.12646902       1.48979827
24
Lattice="9.362741240936169 7.041086974715331e-14 1.0296890658917356e-15 4.681370620468025 8.10837176371099 -1.5069575165677398e-15 4.681370620468061 2.702790587903695 11.689955528332318" Properties=species:S:1:pos:R:3 unique_starting_index=24 config_type=initial n_minim_iter=10 stress="0.00047263696194116265 3.239802521189858e-15 2.7447154093988026e-16 3.239802521189858e-15 0.0004726369619397375 1.070739252007491e-15 2.7447154093988026e-16 1.070739252007491e-15 0.00012674675380240568" pbc="T T T"
Si      10.21733739       4.44769243      11.13344225
Si       9.76499822       6.62462753      11.13344225
Si       8.10588671       5.14442277      11.13344225
Si      10.40842907       4.74728254       9.02858625
Si       9.40999974       6.64032272       9.02858625
Si       8.26979351       4.82913746       9.02858625
Si      11.18936962       4.48229048       1.87479923
Si       9.24901931       7.44913311       1.87479923
Si       7.64983339       4.28531913       1.87479923
Si      10.36717724       6.14187127       3.13615412
Si       8.22287638       5.90730323       3.13615412
Si       9.49816870       4.16756823       3.13615412
Si      10.92902091       8.09704717       9.39044837
Si       6.24872255       5.41628617       9.39044837
Si      10.91047886       2.70340938       9.39044837
Si      12.38518069       4.20867015       9.65953438
Si       8.88807594       8.62154603       9.65953438
Si       6.81496569       3.38652654       9.65953438
Si      10.30133591      10.01563675       8.69983691
Si       4.90101773       3.91340022       8.69983691
Si      12.88586868       2.28770575       8.69983691
Si       4.91005973       1.48817151       1.48601801
Si       5.61891611       3.50815071       1.48601801
Si       3.51513461       3.11204874       1.48601801
24
Lattice="9.364035860847194 6.89655011484923e-14 8.614476353265158e-16 4.682017930423538 8.109492937442182 -1.5479591361859522e-15 4.682017930423575 2.70316431248076 11.828385225287857" Properties=species:S:1:pos:R:3 unique_starting_index=24 config_type=initial n_minim_iter=11 stress="0.004241715034216995 3.656539043580109e-15 7.62875941485868e-16 3.656539043580109e-15 0.004241715034217232 8.046227576292335e-16 7.62875941485868e-16 8.046227576292335e-16 0.0010279148867408283" pbc="T T T"
Si      10.24885421       4.47191090      11.26881987
Si       9.73085525       6.63981266      11.26881987
Si       8.11239673       5.10726152      11.26881987
Si      10.40634793       4.73600090       9.15603683
Si       9.42339973       6.64416123       9.15603683
Si       8.26235852       4.83882295       9.15603683
Si      11.18447828       4.44754083       1.90840921
Si       9.28414831       7.46227191       1.90840921
Si       7.62347959       4.30917233       1.90840921
Si      10.37600566       6.12548998       3.16858081
Si       8.23523802       5.92313950       3.16858081
Si       9.48086250       4.17035559       3.16858081
Si      10.94280704       8.09170954       9.49300340
Si       6.24904125       5.43089412       9.49300340
Si      10.90025789       2.69638141       9.49300340
Si      12.38715752       4.18932112       9.77038231
Si       8.90643351       8.63293254       9.77038231
Si       6.79851515       3.39673141       9.77038231
Si      10.30806652      10.01290394       8.81033848
Si       4.90260835       3.92059550       8.81033848
Si      12.88143131       2.28548562       8.81033848
Si       4.94003176       1.48832070       1.47754501
Si       5.60509551       3.53403265       1.47754501
Si       3.50092512       3.08713878       1.47754501
24
Lattice="9.352824846656352 7.055726561377288e-14 5.195364088583013e-16 4.676412423328115 8.099783914350734 -1.8110015662823732e-15 4.676412423328153 2.6999279714502755 11.921287844164684" Properties=species:S:1:pos:R:3 unique_starting_index=24 config_type=initial n_minim_iter=12 stress="0.0018115526251790356 3.3059320578190805e-15 4.3174302346648116e-16 3.3059320578190805e-15 0.0018115526251811676 8.144047820927024e-16 4.3174302346648116e-16 8.144047820927024e-16 0.0010244479715760728" pbc="T T T"
Si      10.25526718       4.48380638      11.36042829
Si       9.69492494       6.63941871      11.36042829
Si       8.10828102       5.07634194      11.36042829
Si      10.39180207       4.72920675       9.24426414
Si       9.41413454       6.63496121       9.24426414
Si       8.25253653       4.83539906       9.24426414
Si      11.16294864       4.42288415       1.93228385
Si       9.29384441       7.45595503       1.93228385
Si       7.60168009       4.32072785       1.93228385
Si      10.37510019       6.10909264       3.18933551
Si       8.22746925       5.93055402       3.18933551
Si       9.45590370       4.15992037       3.18933551
Si      10.94132616       8.08617406       9.56235304
Si       6.23215353       5.43237938       9.56235304
Si      10.88499346       2.68101359       9.56235304
Si      12.36703473       4.17910234       9.84097842
Si       8.90292261       8.62061508       9.84097842
Si       6.78851580       3.39984960       9.84097842
Si      10.29267702      10.00071656       8.88504059
Si       4.89843566       3.91336150       8.88504059
Si      12.86736046       2.28548897       8.88504059
Si       4.95480103       1.48801624       1.47083081
Si       5.58676354       3.54697545       1.47083081
Si       3.48767130       3.06479143       1.47083081
24
Lattice="9.353408851012388 7.150279321911637e-14 1.7445107616883874e-16 4.6767044255061325 8.100289676958985 -1.7183973255338476e-15 4.676704425506171 2.7000965589863584 11.949731869850588" Properties=species:S:1:pos:R:3 unique_starting_index=24 config_type=initial n_minim_iter=13 stress="0.00038433834275074594 3.867983356079671e-15 8.993370932849859e-16 3.867983356079671e-15 0.0003843383427526373 6.038704003111416e-16 8.993370932849859e-16 6.038704003111416e-16 -0.00026254520169047594" pbc="T T T"
Si      10.26081581       4.49063129      11.38686334
Si       9.68740809       6.64081151      11.38686334
Si       8.11200125       5.06913575      11.38686334
Si      10.39082643       4.73010976       9.27418792
Si       9.41500834       6.63366478       9.27418792
Si       8.25439038       4.83680402       9.27418792
Si      11.15852427       4.42151170       1.93923671
Si       9.29841318       7.45280964       1.93923671
Si       7.60328771       4.32625721       1.93923671
Si      10.38734804       6.10766973       3.19476539
Si       8.22374560       5.94187242       3.19476539
Si       9.44913151       4.15103640       3.19476539
Si      10.94019193       8.08978355       9.58605598
Si       6.23076274       5.42959236       9.58605598
Si      10.88927049       2.68120264       9.58605598
Si      12.36564443       4.18419544       9.85801708
Si       8.90037501       8.61686449       9.85801708
Si       6.79420572       3.39951862       9.85801708
Si      10.29407243      10.00412209       8.90837650
Si       4.89595668       3.91286719       8.90837650
Si      12.87019604       2.28358927       8.90837650
Si       4.96168624       1.48989202       1.47039941
Si       5.58228046       3.55200032       1.47039941
Si       3.48614518       3.05839653       1.47039941
24
Lattice="9.344919979004567 7.05053087709495e-14 -3.54220135209319e-16 4.672459989502221 8.092938098150736 -1.1024439629884647e-15 4.6724599895022605 2.697646032716942 11.990528612209967" Properties=species:S:1:pos:R:3 unique_starting_index=24 config_type=initial n_minim_iter=14 stress="-0.00341269748187905 3.395123881794614e-15 5.459181922369256e-16 3.395123881794614e-15 -0.003412697481877514 6.793063668146628e-16 5.459181922369256e-16 6.793063668146628e-16 0.00047886310158969813" pbc="T T T"
Si      10.26846386       4.50069893      11.43099197
Si       9.65788749       6.64240110      11.43099197
Si       8.10840719       5.04277537      11.43099197
Si      10.37814920       4.72551135       9.31214037
Si       9.40835155       6.62498518       9.31214037
Si       8.24825779       4.83537886       9.31214037
Si      11.13972876       4.40162050       1.94809048
Si       9.30805948       7.44647785       1.94809048
Si       7.58697031       4.33777704       1.94809048
Si      10.39653941       6.08891257       3.19518039
Si       8.21841635       5.95921095       3.19518039
Si       9.41980278       4.13775187       3.19518039
Si      10.92783645       8.08418253       9.62732260
Si       6.22481336       5.42169271       9.62732260
Si      10.88210873       2.68000015       9.62732260
Si      12.35549960       4.18639854       9.88692117
Si       8.88656175       8.60697726       9.88692117
Si       6.79269720       3.39249959       9.88692117
Si      10.28563298       9.99712616       8.93848355
Si       4.88925732       3.90905638       8.93848355
Si      12.85986824       2.27969286       8.93848355
Si       4.97164784       1.49215013       1.46865298
Si       5.56685521       3.55949826       1.46865298
Si       3.47887552       3.04128890       1.46865298
24
Lattice="9.352999429050765 6.770619330236477e-14 -6.469145383103155e-16 4.676499714525321 8.099935107139345 -9.216417275164651e-16 4.676499714525359 2.6999783690464794 11.935937756002078" Properties=species:S:1:pos:R:3 unique_starting_index=24 config_type=initial n_minim_iter=15 stress="-0.0014709505610017593 3.9502655794564135e-15 1.587522034635775e-16 3.9502655794564135e-15 -0.001470950561000989 3.2757221874773766e-16 1.587522034635775e-16 3.2757221874773766e-16 -0.0021348183803490154" pbc="T T T"
Si      10.29786105       4.53148647      11.38305571
Si       9.63268500       6.65246604      11.38305571
Si       8.12845083       5.01591690      11.38305571
Si      10.38920209       4.73149134       9.26540168
Si       9.41380519       6.63156726       9.26540168
Si       8.25598962       4.83681081       9.26540168
Si      11.13517359       4.38115551       1.93014626
Si       9.34421916       7.45276545       1.93014626
Si       7.57960414       4.36594844       1.93014626
Si      10.43986038       6.06122055       3.15286668
Si       8.23689676       6.01057403       3.15286668
Si       9.38223975       4.12807483       3.15286668
Si      10.91913544       8.10091188       9.61986752
Si       6.23083473       5.40579274       9.61986752
Si      10.90902672       2.69316479       9.61986752
Si      12.37652098       4.21237400       9.83861179
Si       8.86971454       8.61219458       9.83861179
Si       6.81276136       3.37530083       9.83861179
Si      10.29419819      10.00482597       8.88881075
Si       4.89446538       3.91262416       8.88881075
Si      12.87033331       2.28241928       8.88881075
Si       4.98834011       1.49847715       1.47493969
Si       5.56110917       3.57079069       1.47493969
Si       3.48004847       3.03066647       1.47493969
24
Lattice="9.359225402685214 6.964743834978719e-14 -8.849469490403405e-16 4.679612701342545 8.105326958470068 -4.9761727645085175e-17 4.679612701342581 2.701775652823388 11.947819074469622" Properties=species:S:1:pos:R:3 unique_starting_index=24 config_type=initial n_minim_iter=16 stress="0.0029784356404756536 3.099133261859766e-15 -2.4376100041900098e-17 3.099133261859766e-15 0.0029784356404757243 9.278842101376546e-17 -2.4376100041900098e-17 9.278842101376546e-17 0.0011852250034823937" pbc="T T T"
Si      10.34400687       4.57317913      11.40503620
Si       9.58595714       6.67158316      11.40503620
Si       8.14771080       4.96589082      11.40503620
Si      10.39680205       4.72998393       9.27568476
Si       9.42376261       6.63890273       9.27568476
Si       8.25711015       4.84176646       9.27568476
Si      11.12124051       4.34351561       1.92397916
Si       9.39623476       7.45951900       1.92397916
Si       7.56019954       4.40761850       1.92397916
Si      10.48869458       6.01437739       3.12126511
Si       8.26549898       6.07628727       3.12126511
Si       9.32348125       4.11998846       3.12126511
Si      10.91094951       8.11669438       9.67175366
Si       6.23371159       5.39081227       9.67175366
Si      10.93301370       2.70314647       9.67175366
Si      12.39633741       4.23503456       9.84054648
Si       8.85263365       8.61802584       9.84054648
Si       6.82870374       3.35759272       9.84054648
Si      10.29403748      10.00238892       8.89124967
Si       4.90910823       3.91370351       8.89124967
Si      12.87452910       2.29456068       8.89124967
Si       5.01914108       1.50609621       1.47948451
Si       5.54533635       3.59365558       1.47948451
Si       3.47435927       3.00557436       1.47948451
24
Lattice="9.352557032165901 6.974423705473371e-14 -8.764873346556488e-17 4.676278516082888 8.0995519801985 6.771503656953137e-16 4.676278516082925 2.6998506600661987 11.942933039199078" Properties=species:S:1:pos:R:3 unique_starting_index=24 config_type=initial n_minim_iter=17 stress="-0.000921041649655042 3.1619490873901572e-15 -3.902428820112047e-17 3.1619490873901572e-15 -0.000921041649653542 1.1547753206683762e-16 -3.902428820112047e-17 1.1547753206683762e-16 -0.00021642175216649769" pbc="T T T"
Si      10.32729834       4.56192501      11.39973514
Si       9.59072102       6.66274021      11.39973514
Si       8.13965035       4.97443794      11.39973514
Si      10.38828931       4.72365809       9.27203215
Si       9.42016058       6.63469340       9.27203215
Si       8.24921981       4.84075167       9.27203215
Si      11.12188111       4.34872882       1.91129817
Si       9.37806295       7.45746717       1.91129817
Si       7.55772564       4.39290717       1.91129817
Si      10.46281580       6.00839734       3.13489526
Si       8.27028050       6.05686561       3.13489526
Si       9.32457340       4.13384021       3.13489526
Si      10.90918334       8.10523744       9.66773218
Si       6.23117994       5.39501119       9.66773218
Si      10.91730642       2.69885453       9.66773218
Si      12.38570741       4.22550222       9.82931899
Si       8.85286716       8.61358616       9.82931899
Si       6.81909512       3.36001478       9.82931899
Si      10.27622453       9.98376165       8.89325850
Si       4.92080965       3.90759067       8.89325850
Si      12.86063551       2.30775083       8.89325850
Si       5.01051106       1.50303711       1.47798799
Si       5.54563226       3.58771131       1.47798799
Si       3.47269084       3.00880276       1.47798799
24
Lattice="9.352693671624529 7.068363108722252e-14 8.13324454294482e-17 4.6763468358122005 8.099670313440834 1.0156444845441962e-15 4.676346835812239 2.699890104480309 11.960537110561166" Properties=species:S:1:pos:R:3 unique_starting_index=24 config_type=initial n_minim_iter=18 stress="-0.003047363742557072 2.1332501914820867e-15 -5.762759212234845e-16 2.1332501914820867e-15 -0.0030473637425534484 4.341368464586021e-16 -5.762759212234845e-16 4.341368464586021e-16 -0.0026352676437510275" pbc="T T T"
Si      10.36428067       4.59988169      11.42678997
Si       9.53963168       6.67578951      11.42678997
Si       8.15416727       4.92366863      11.42678997
Si      10.38355017       4.71884156       9.29319902
Si       9.42697466       6.63299745       9.29319902
Si       8.24755479       4.84750082       9.29319902
Si      11.09990447       4.31887531       1.88672324
Si       9.41517844       7.45336160       1.88672324
Si       7.54299670       4.42710292       1.88672324
Si      10.49357898       5.93817545       3.11710349
Si       8.31598613       6.11861825       3.11710349
Si       9.24851451       4.14254612       3.11710349
Si      10.89691000       8.10827438       9.74462253
Si       6.23495982       5.38286370       9.74462253
Si      10.92620980       2.70820175       9.74462253
Si      12.39668311       4.24518498       9.80714758
Si       8.83060682       8.61325001       9.80714758
Si       6.83078969       3.34090483       9.80714758
Si      10.25756303       9.96171024       8.91059211
Si       4.94951076       3.90245505       8.91059211
Si      12.85100582       2.33517454       8.91059211
Si       5.04061045       1.51173568       1.48201545
Si       5.52318601       3.60942886       1.48201545
Si       3.46524264       2.97850497       1.48201545
24
Lattice="9.362904940454115 7.08664730431902e-14 5.629853412281398e-17 4.681452470226993 8.10851353165213 1.7265579640462054e-15 4.681452470227031 2.702837843884075 12.019766294115549" Properties=species:S:1:pos:R:3 unique_starting_index=24 config_type=initial n_minim_iter=19 stress="-0.0002421256240528005 1.8941879303034453e-15 -2.1047884381944637e-16 1.8941879303034453e-15 -0.0002421256240480196 2.570153511957112e-16 -2.1047884381944637e-16 2.570153511957112e-16 -1.630281005502876e-05" pbc="T T T"
Si      10.38760421       4.61663441      11.48449587
Si       9.53388416       6.68761193      11.48449587
Si       8.16722505       4.91277992      11.48449587
Si      10.39009773       4.72058770       9.34865083
Si       9.44261121       6.63779473       9.34865083
Si       8.25600448       4.85864383       9.34865083
Si      11.10514796       4.31430881       1.88060863
Si       9.43693394       7.46018584       1.88060863
Si       7.54663152       4.44253161       1.88060863
Si      10.50467135       5.92247840       3.13617194
Si       8.34445652       6.13607305       3.13617194
Si       9.23958555       4.15847480       3.13617194
Si      10.90845727       8.11468759       9.81687052
Si       6.24405472       5.38965732       9.81687052
Si      10.93620143       2.71268135       9.81687052
Si      12.41079833       4.24965220       9.83121093
Si       8.84010303       8.62324054       9.83121093
Si       6.83781207       3.34413353       9.83121093
Si      10.26453718       9.96517996       8.96216011
Si       4.96344136       3.90675997       8.96216011
Si      12.86073488       2.34508632       8.96216011
Si       5.05943445       1.51913298       1.48369626
Si       5.51757903       3.62203228       1.48369626
Si       3.46734253       2.96734747       1.48369626
24
Lattice="9.373817835800855 6.909516394670186e-14 -1.9573497494275214e-16 4.686908917900365 8.117964376251246 2.1633715127774416e-15 4.686908917900401 2.7059881254171145 11.99763622789884" Properties=species:S:1:pos:R:3 unique_starting_index=24 config_type=initial n_minim_iter=20 stress="0.0035416497625904244 1.765702393149304e-15 2.0259367678972042e-16 1.765702393149304e-15 0.003541649762595592 2.135381131108938e-16 2.0259367678972042e-16 2.135381131108938e-16 0.0018755632111930652" pbc="T T T"
Si      10.38676785       4.61321352      11.46122566
Si       9.55909071       6.68859807      11.46122566
Si       8.17559354       4.93411636      11.46122566
Si      10.40043154       4.72782915       9.32762221
Si       9.45299882       6.64312335       9.32762221
Si       8.26802174       4.86497545       9.32762221
Si      11.11746442       4.33640592       1.86528531
Si       9.43346484       7.45980366       1.86528531
Si       7.57052284       4.43971837       1.86528531
Si      10.51340734       5.93906442       3.13819694
Si       8.34755041       6.13534563       3.13819694
Si       9.26049436       4.16151790       3.13819694
Si      10.91137335       8.12735023       9.80929172
Si       6.25345630       5.38585140       9.80929172
Si      10.95662245       2.72272632       9.80929172
Si      12.42207734       4.26989061       9.80498941
Si       8.83876233       8.62288924       9.80498941
Si       6.86061244       3.34314810       9.80498941
Si      10.28297450       9.98350774       8.94470261
Si       4.96017617       3.91356328       8.94470261
Si      12.87830144       2.33885693       8.94470261
Si       5.05760900       1.52017497       1.48955078
Si       5.52850226       3.61993040       1.48955078
Si       3.47461409       2.97785821       1.48955078
24
Lattice="9.366117301958136 6.863994719391369e-14 -1.0172539781954966e-15 4.683058650979005 8.111295518320746 2.339083644802542e-15 4.68305865097904 2.703765172773616 12.030336940051635" Properties=species:S:1:pos:R:3 unique_starting_index=24 config_type=initial n_minim_iter=21 stress="0.00021501451788743438 9.573350273878074e-16 6.547437885573254e-16 9.573350273878074e-16 0.00021501451789265874 -2.0082656186129838e-16 6.547437885573254e-16 -2.0082656186129838e-16 0.00021665962889368286" pbc="T T T"
Si      10.39544220       4.62509507      11.49478732
Si       9.52906275       6.69016950      11.49478732
Si       8.17384555       4.90732566      11.49478732
Si      10.38889630       4.71501954       9.35910884
Si       9.45445882       6.63953834       9.35910884
Si       8.25499538       4.86803235       9.35910884
Si      11.10048415       4.31528601       1.86694912
Si       9.44484429       7.45565827       1.86694912
Si       7.55302206       4.45164596       1.86694912
Si      10.51431778       5.91955677       3.14076111
Si       8.34858824       6.14588792       3.14076111
Si       9.23544448       4.15714554       3.14076111
Si      10.90317541       8.12693086       9.84444478
Si       6.24251738       5.37896145       9.84444478
Si      10.95265771       2.71669791       9.84444478
Si      12.41392327       4.26521036       9.82824171
Si       8.83149151       8.61816774       9.82824171
Si       6.85293572       3.33921213       9.82824171
Si      10.26939853       9.97129117       8.97270361
Si       4.96214295       3.90791443       8.97270361
Si      12.86680903       2.34338464       8.97270361
Si       5.07097922       1.52109425       1.48606780
Si       5.51332049       3.63104970       1.48606780
Si       3.46487484       2.95915076       1.48606780
