22
Lattice="5.571218707301187 -0.7497903564282044 -1.3419029741010189 -2.648397974464122 10.447362224744346 -2.032561343791943 -4.51815899113475 -4.936515055178771 10.74553683254178" Properties=species:S:1:pos:R:3 unique_starting_index=18 config_type=initial n_minim_iter=1 energy=-3583.7966146336457 free_energy=-3583.7966146336457 pbc="T T T"
Si      -0.27184927       9.09709975      -0.95083253
Si      -1.54498122      -1.22255177       5.70280331
Si      -3.75473837      -3.45094008       9.53404634
Si       0.28184796      -2.74508562       8.68979466
Si      -5.62885578      -0.23072682       8.89038342
Si       4.23371365       2.02044210       0.21882731
Si       2.17554654       0.68937786       0.40582501
Si      -1.46624129       0.49048435       6.95901492
Si      -1.64021578      -3.31845128       9.37759114
Si      -2.66974755       1.10035533       5.31584635
Si       1.17767336      -0.28829852       2.53805021
Si      -2.97833412       3.58268738       5.05699846
Si      -3.44986879      -2.68489916       6.28786129
Si      -0.72977418       6.66648019      -1.07946044
Si       1.05349254       1.38581201       3.88001981
Si       1.01797379       7.64490274      -1.80517509
Si      -0.89987890      -1.25029451       3.28053163
Si       2.77600262      -4.85337779       6.38596693
Si       0.22741456       3.16628493       3.03873592
Si      -2.82360081       2.51597939       6.88706345
Si      -1.40958570       4.46626434       3.42308033
Si      -1.81520633      -2.17151551       7.58587864
22
Lattice="5.571308420801702 -0.749775898949577 -1.3419047565784137 -2.6483995190895877 10.44753180684069 -2.03260070947298 -4.51822214583912 -4.936618852739647 10.745702150631368" Properties=species:S:1:pos:R:3 unique_starting_index=18 config_type=initial n_minim_iter=2 stress="0.00015836170148699546 -6.937104240849756e-06 6.207970209461451e-07 -6.937104240849756e-06 0.00012085947109228775 -2.8730073305106293e-05 6.207970209461451e-07 -2.8730073305106293e-05 0.00013364336972408354" pbc="T T T"
Si      -0.27181057       9.09725717      -0.95084669
Si      -1.54499294      -1.22257830       5.70288799
Si      -3.75478645      -3.45101611       9.53419259
Si       0.28187308      -2.74512447       8.68994403
Si      -5.62892304      -0.23075858       8.89051400
Si       4.23380453       2.02050046       0.21885280
Si       2.17559016       0.68940071       0.40584020
Si      -1.46624089       0.49049453       6.95912798
Si      -1.64022359      -3.31851409       9.37774082
Si      -2.66977079       1.10036751       5.31593579
Si       1.17770388      -0.28829708       2.53809971
Si      -2.97835374       3.58273286       5.05707762
Si      -3.44992129      -2.68496128       6.28795390
Si      -0.72975901       6.66659675      -1.07947512
Si       1.05354478       1.38584491       3.88009297
Si       1.01802227       7.64504453      -1.80519644
Si      -0.89988772      -1.25031849       3.28058647
Si       2.77605156      -4.85344840       6.38608759
Si       0.22744978       3.16634214       3.03878910
Si      -2.82360968       2.51601046       6.88716623
Si      -1.40957982       4.46634232       3.42313701
Si      -1.81521842      -2.17155795       7.58600809
22
Lattice="5.571253963447632 -0.7496949463366244 -1.341851157915888 -2.64821502090236 10.447558141333637 -2.032505985071553 -4.518164438361811 -4.936614163141871 10.745624361973215" Properties=species:S:1:pos:R:3 unique_starting_index=18 config_type=initial n_minim_iter=3 stress="-6.777726818621369e-05 9.797742148071766e-05 9.30834965125825e-05 9.797742148071766e-05 -5.041852730281849e-05 2.4726353745398662e-05 9.30834965125825e-05 2.4726353745398662e-05 6.447214187226269e-05" pbc="T T T"
Si      -0.27164066       9.09731938      -0.95075257
Si      -1.54494390      -1.22254719       5.70283621
Si      -3.75472161      -3.45100967       9.53412327
Si       0.28191870      -2.74501286       8.68994329
Si      -5.62881488      -0.23078045       8.89046817
Si       4.23385432       2.02060814       0.21895212
Si       2.17560136       0.68945254       0.40586450
Si      -1.46616036       0.49058501       6.95912484
Si      -1.64015020      -3.31846645       9.37769200
Si      -2.66969330       1.10042602       5.31599785
Si       1.17773302      -0.28825073       2.53812917
Si      -2.97825387       3.58272730       5.05712167
Si      -3.44989222      -2.68498113       6.28789904
Si      -0.72965280       6.66665750      -1.07938363
Si       1.05370581       1.38593950       3.88014392
Si       1.01812499       7.64513735      -1.80507912
Si      -0.89986366      -1.25030072       3.28058745
Si       2.77601413      -4.85338066       6.38609306
Si       0.22756522       3.16640604       3.03883034
Si      -2.82345649       2.51604741       6.88713141
Si      -1.40947469       4.46643749       3.42319655
Si      -1.81514369      -2.17150657       7.58602665
22
Lattice="5.571353349016533 -0.7497813843348264 -1.3419180807256423 -2.6483655457883413 10.447729800979458 -2.0324590956213386 -4.518310762645626 -4.936628207732042 10.745577253314172" Properties=species:S:1:pos:R:3 unique_starting_index=18 config_type=initial n_minim_iter=4 stress="2.440662301233939e-05 -8.577902471900616e-05 1.2821005176547262e-05 -8.577902471900616e-05 5.359917456846964e-06 5.522790611341838e-06 1.2821005176547262e-05 5.522790611341838e-06 -1.2368655101340193e-05" pbc="T T T"
Si      -0.27175864       9.09743835      -0.95075778
Si      -1.54503390      -1.22254666       5.70278684
Si      -3.75486119      -3.45102002       9.53406817
Si       0.28182835      -2.74505469       8.68984415
Si      -5.62902751      -0.23072540       8.89044646
Si       4.23388262       2.02057363       0.21888653
Si       2.17561415       0.68942923       0.40581840
Si      -1.46629679       0.49060480       6.95905553
Si      -1.64025343      -3.31850479       9.37761246
Si      -2.66981562       1.10046697       5.31599591
Si       1.17771839      -0.28827703       2.53808889
Si      -2.97843039       3.58279374       5.05710316
Si      -3.44999414      -2.68498051       6.28788484
Si      -0.72974593       6.66676257      -1.07936238
Si       1.05366254       1.38594122       3.88008383
Si       1.01805204       7.64522848      -1.80508115
Si      -0.89990492      -1.25030665       3.28057259
Si       2.77601137      -4.85350184       6.38598799
Si       0.22748542       3.16643361       3.03878050
Si      -2.82362619       2.51610176       6.88707868
Si      -1.40961395       4.46652818       3.42317765
Si      -1.81524293      -2.17151270       7.58598254
22
Lattice="5.571384393902812 -0.7496789315627187 -1.3420186032658672 -2.648135756008076 10.447799531220035 -2.032432666121859 -4.5186348375392775 -4.936807507770912 10.745618343745836" Properties=species:S:1:pos:R:3 unique_starting_index=18 config_type=initial n_minim_iter=5 stress="4.15859050570503e-05 7.127964990038392e-05 -0.0001059009646132634 7.127964990038392e-05 -4.954259896428859e-06 -2.6565623322601915e-05 -0.0001059009646132634 -2.6565623322601915e-05 -3.827540948555125e-05" pbc="T T T"
Si      -0.27156617       9.09753285      -0.95079486
Si      -1.54518387      -1.22260271       5.70277948
Si      -3.75512437      -3.45117448       9.53407919
Si       0.28159617      -2.74509548       8.68979424
Si      -5.62926183      -0.23086764       8.89049001
Si       4.23394450       2.02067496       0.21879675
Si       2.17563045       0.68947474       0.40575316
Si      -1.46643194       0.49054365       6.95902230
Si      -1.64049161      -3.31862003       9.37759766
Si      -2.66989640       1.10038660       5.31602894
Si       1.17767582      -0.28827070       2.53806243
Si      -2.97848329       3.58275434       5.05710380
Si      -3.45018678      -2.68510999       6.28793080
Si      -0.72961120       6.66684036      -1.07935238
Si       1.05363147       1.38595851       3.88003573
Si       1.01822499       7.64535162      -1.80511045
Si      -0.89999538      -1.25034572       3.28058874
Si       2.77578205      -4.85354270       6.38591373
Si       0.22749011       3.16645856       3.03873396
Si      -2.82371961       2.51604428       6.88708644
Si      -1.40960808       4.46656543       3.42317453
Si      -1.81543662      -2.17158495       7.58599108
22
Lattice="5.571319401425896 -0.7496996361439354 -1.3419715712366704 -2.648139212503557 10.447951178431541 -2.032427585806039 -4.518480083972433 -4.936835802170351 10.7456050354897" Properties=species:S:1:pos:R:3 unique_starting_index=18 config_type=initial n_minim_iter=6 stress="-9.782700890041313e-05 -1.6486940535287434e-05 -3.8145735399400496e-05 -1.6486940535287434e-05 5.57414065488261e-05 2.228828924014883e-05 -3.8145735399400496e-05 2.228828924014883e-05 7.472507034079688e-05" pbc="T T T"
Si      -0.27157956       9.09766857      -0.95078706
Si      -1.54512399      -1.22258703       5.70278301
Si      -3.75497572      -3.45120102       9.53404573
Si       0.28166594      -2.74507908       8.68983250
Si      -5.62916698      -0.23083236       8.89045600
Si       4.23393140       2.02070447       0.21885902
Si       2.17562303       0.68948426       0.40574908
Si      -1.46634570       0.49056147       6.95902333
Si      -1.64035050      -3.31865472       9.37761150
Si      -2.66979481       1.10038398       5.31604409
Si       1.17770770      -0.28827093       2.53810569
Si      -2.97842329       3.58282780       5.05708795
Si      -3.45009523      -2.68514042       6.28792605
Si      -0.72963374       6.66696276      -1.07931917
Si       1.05368210       1.38599460       3.88007482
Si       1.01817118       7.64547760      -1.80506565
Si      -0.89994905      -1.25034436       3.28061456
Si       2.77580097      -4.85361585       6.38596380
Si       0.22751919       3.16651984       3.03874804
Si      -2.82361502       2.51610931       6.88712091
Si      -1.40957057       4.46668743       3.42320285
Si      -1.81533302      -2.17156096       7.58601213
22
Lattice="5.571402944499127 -0.7496723976139057 -1.3418795226657463 -2.648180024703287 10.447882950815615 -2.0324666634442456 -4.518445050570354 -4.936855924579559 10.74540612343723" Properties=species:S:1:pos:R:3 unique_starting_index=18 config_type=initial n_minim_iter=7 stress="2.488035547252267e-05 7.037338236413433e-06 2.378571908964535e-05 7.037338236413433e-06 8.723065723793003e-06 8.464906570852892e-06 2.378571908964535e-05 8.464906570852892e-06 -3.660868413480671e-05" pbc="T T T"
Si      -0.27157142       9.09761950      -0.95081741
Si      -1.54509377      -1.22259982       5.70268565
Si      -3.75492877      -3.45123087       9.53385441
Si       0.28176546      -2.74507701       8.68971673
Si      -5.62917485      -0.23087903       8.89024791
Si       4.23403210       2.02070458       0.21890641
Si       2.17567523       0.68948304       0.40575255
Si      -1.46628395       0.49052248       6.95889241
Si      -1.64026290      -3.31868428       9.37746040
Si      -2.66976518       1.10033233       5.31593357
Si       1.17777006      -0.28827662       2.53809522
Si      -2.97840926       3.58277675       5.05695303
Si      -3.45009068      -2.68516618       6.28780662
Si      -0.72964691       6.66693270      -1.07932677
Si       1.05376195       1.38597399       3.88002689
Si       1.01818329       7.64544371      -1.80504772
Si      -0.89992689      -1.25034723       3.28057204
Si       2.77591002      -4.85360457       6.38592815
Si       0.22756853       3.16649318       3.03868765
Si      -2.82356738       2.51605672       6.88697718
Si      -1.40954329       4.46665746       3.42311948
Si      -1.81528261      -2.17157078       7.58588672
22
Lattice="5.571465203382521 -0.7496450130385235 -1.341887319271958 -2.6482277969593975 10.44768954591573 -2.0326590722258477 -4.5184953349998285 -4.936916074307689 10.74560376272911" Properties=species:S:1:pos:R:3 unique_starting_index=18 config_type=initial n_minim_iter=8 stress="-5.933005511991781e-06 -2.0650666736276324e-05 1.3754799302831172e-05 -2.0650666736276324e-05 -7.513505744773355e-05 -0.0001279681802764105 1.3754799302831172e-05 -0.0001279681802764105 7.033460583192844e-05" pbc="T T T"
Si      -0.27163027       9.09748542      -0.95099813
Si      -1.54514691      -1.22266354       5.70276475
Si      -3.75493287      -3.45131903       9.53397106
Si       0.28175859      -2.74511649       8.68984835
Si      -5.62925880      -0.23100532       8.89033947
Si       4.23410658       2.02064321       0.21887170
Si       2.17570291       0.68943123       0.40571879
Si      -1.46630909       0.49040024       6.95895498
Si      -1.64024950      -3.31879454       9.37758709
Si      -2.66980775       1.10018003       5.31596730
Si       1.17781567      -0.28832423       2.53816507
Si      -2.97846846       3.58261177       5.05692334
Si      -3.45012571      -2.68523814       6.28795552
Si      -0.72969234       6.66683249      -1.07942727
Si       1.05380624       1.38586121       3.88004605
Si       1.01816780       7.64529177      -1.80518726
Si      -0.89993279      -1.25036158       3.28067090
Si       2.77594080      -4.85361661       6.38609458
Si       0.22753296       3.16639280       3.03864801
Si      -2.82359182       2.51588732       6.88700745
Si      -1.40957218       4.46653423       3.42307422
Si      -1.81534924      -2.17164064       7.58600830
22
Lattice="5.571518588571177 -0.7496468968164398 -1.3419087284332405 -2.648220258209548 10.447635637667732 -2.0325100523528845 -4.518586520645747 -4.93678466725093 10.745496015358482" Properties=species:S:1:pos:R:3 unique_starting_index=18 config_type=initial n_minim_iter=9 stress="3.569848429004597e-05 -1.9404184699961582e-06 -1.606001110523953e-05 -1.9404184699961582e-06 -4.863189019140655e-05 4.528278869617661e-05 -1.606001110523953e-05 4.528278869617661e-05 2.064098461829257e-05" pbc="T T T"
Si      -0.27164014       9.09749600      -0.95089563
Si      -1.54521197      -1.22260096       5.70272053
Si      -3.75497584      -3.45121283       9.53385334
Si       0.28172107      -2.74496852       8.68975990
Si      -5.62935174      -0.23090629       8.89029700
Si       4.23417319       2.02064701       0.21887726
Si       2.17572852       0.68942098       0.40569551
Si      -1.46634819       0.49048969       6.95892698
Si      -1.64027830      -3.31870122       9.37747957
Si      -2.66985394       1.10019844       5.31595128
Si       1.17784528      -0.28829859       2.53817438
Si      -2.97851091       3.58265437       5.05693323
Si      -3.45018304      -2.68519109       6.28792725
Si      -0.72969924       6.66682660      -1.07932049
Si       1.05383168       1.38589427       3.88003975
Si       1.01819132       7.64524603      -1.80508042
Si      -0.89995199      -1.25031235       3.28067427
Si       2.77593452      -4.85352680       6.38600515
Si       0.22750885       3.16643939       3.03865484
Si      -2.82362189       2.51596179       6.88700235
Si      -1.40958910       4.46658514       3.42310581
Si      -1.81543298      -2.17154307       7.58594562
22
Lattice="5.571448836134074 -0.7496306303724715 -1.3418493226431998 -2.6481695021375176 10.44789889063107 -2.032620745220484 -4.518498941382171 -4.937049705980449 10.745356993798243" Properties=species:S:1:pos:R:3 unique_starting_index=18 config_type=initial n_minim_iter=10 stress="-1.950925782164382e-05 5.424926729793688e-06 7.878394982188102e-06 5.424926729793688e-06 5.506711094599753e-05 -1.3459094604846497e-05 7.878394982188102e-06 -1.3459094604846497e-05 -3.7990227065803104e-05" pbc="T T T"
Si      -0.27164256       9.09775653      -0.95101708
Si      -1.54520332      -1.22272101       5.70262975
Si      -3.75485807      -3.45142719       9.53369065
Si       0.28175918      -2.74511283       8.68965219
Si      -5.62925693      -0.23104079       8.89011641
Si       4.23415165       2.02069619       0.21885423
Si       2.17571498       0.68942152       0.40566636
Si      -1.46630312       0.49043554       6.95880748
Si      -1.64019061      -3.31892694       9.37735032
Si      -2.66980350       1.10011579       5.31583228
Si       1.17787690      -0.28834694       2.53817591
Si      -2.97843269       3.58267011       5.05678004
Si      -3.45012427      -2.68536792       6.28786472
Si      -0.72969666       6.66702038      -1.07937445
Si       1.05385281       1.38586451       3.87996800
Si       1.01817405       7.64544894      -1.80512553
Si      -0.89992718      -1.25037711       3.28066806
Si       2.77593508      -4.85372819       6.38599367
Si       0.22750705       3.16648883       3.03855551
Si      -2.82353267       2.51592523       6.88681879
Si      -1.40954590       4.46666394       3.42297496
Si      -1.81541327      -2.17168347       7.58583994
22
Lattice="5.571479078394388 -0.749602831429552 -1.3418800645468003 -2.648198556270995 10.447546634484327 -2.0327478524433906 -4.518523971367297 -4.936951111163431 10.745648247742292" Properties=species:S:1:pos:R:3 unique_starting_index=18 config_type=initial n_minim_iter=11 stress="3.2398752797731453e-06 -2.853691456805914e-08 -4.15925586829611e-06 -2.853691456805914e-08 -1.4793433869876614e-05 1.0072809674291395e-06 -4.15925586829611e-06 1.0072809674291395e-06 1.2533428938959679e-05" pbc="T T T"
Si      -0.27172229       9.09750969      -0.95118879
Si      -1.54531434      -1.22276204       5.70276563
Si      -3.75479248      -3.45134652       9.53389509
Si       0.28182930      -2.74501349       8.68986438
Si      -5.62935258      -0.23108861       8.89030877
Si       4.23421014       2.02058449       0.21878427
Si       2.17573746       0.68934371       0.40560361
Si      -1.46632748       0.49043875       6.95901184
Si      -1.64011755      -3.31894421       9.37757635
Si      -2.66983670       1.09993578       5.31592588
Si       1.17797515      -0.28841081       2.53832823
Si      -2.97842531       3.58250787       5.05686631
Si      -3.45016324      -2.68538155       6.28809604
Si      -0.72977403       6.66685210      -1.07941496
Si       1.05382852       1.38579824       3.88004992
Si       1.01808725       7.64520307      -1.80516281
Si      -0.89992926      -1.25033408       3.28085685
Si       2.77602254      -4.85367668       6.38620078
Si       0.22745321       3.16634533       3.03858895
Si      -2.82351109       2.51579538       6.88686784
Si      -1.40958391       4.46653879       3.42298500
Si      -1.81548193      -2.17161704       7.58606039
22
Lattice="5.571361804146537 -0.7495480290454843 -1.3416713193965488 -2.648207088757076 10.447494597064715 -2.033096134781835 -4.518161282559648 -4.937228780786605 10.745444360476771" Properties=species:S:1:pos:R:3 unique_starting_index=18 config_type=initial n_minim_iter=12 stress="1.3337853976837512e-05 7.694215332098754e-07 5.825315316176665e-07 7.694215332098754e-07 -1.0311431916862646e-05 8.858788956953179e-08 5.825315316176665e-07 8.858788956953179e-08 -3.973625223750041e-06" pbc="T T T"
Si      -0.27201671       9.09764969      -0.95166221
Si      -1.54548732      -1.22292085       5.70283403
Si      -3.75426131      -3.45139927       9.53366768
Si       0.28239175      -2.74515140       8.68978943
Si      -5.62915409      -0.23124748       8.88988474
Si       4.23432586       2.02045412       0.21867675
Si       2.17575811       0.68926773       0.40537681
Si      -1.46622240       0.49037504       6.95881047
Si      -1.63951571      -3.31932794       9.37722595
Si      -2.66986692       1.09950277       5.31562681
Si       1.17834661      -0.28873529       2.53858616
Si      -2.97811521       3.58236428       5.05647347
Si      -3.45006378      -2.68577220       6.28813085
Si      -0.73007715       6.66695006      -1.07948742
Si       1.05396365       1.38578226       3.87998786
Si       1.01793255       7.64519197      -1.80523129
Si      -0.89984233      -1.25036058       3.28110521
Si       2.77648163      -4.85412102       6.38622541
Si       0.22745588       3.16608228       3.03844138
Si      -2.82314805       2.51557344       6.88645166
Si      -1.40955982       4.46659863       3.42262076
Si      -1.81541008      -2.17172722       7.58611235
22
Lattice="5.571230497829568 -0.7495329971942477 -1.3415957136204943 -2.648156566052148 10.447610545357294 -2.0332128236013096 -4.517957101561891 -4.937384831798738 10.74538702401427" Properties=species:S:1:pos:R:3 unique_starting_index=18 config_type=initial n_minim_iter=13 stress="-1.115843630429404e-06 4.253980985657393e-06 -1.5806553126025418e-06 4.253980985657393e-06 -8.643708747777345e-06 -4.7637039195962264e-07 -1.5806553126025418e-06 -4.7637039195962264e-07 -1.2468353653800115e-06" pbc="T T T"
Si      -0.27209636       9.09777749      -0.95181664
Si      -1.54551652      -1.22297266       5.70284653
Si      -3.75397771      -3.45145444       9.53360115
Si       0.28261915      -2.74518005       8.68974663
Si      -5.62897570      -0.23133275       8.88978031
Si       4.23432529       2.02044772       0.21867513
Si       2.17572913       0.68928606       0.40529630
Si      -1.46617294       0.49037628       6.95873641
Si      -1.63934225      -3.31951742       9.37711786
Si      -2.66979255       1.09937166       5.31557201
Si       1.17844618      -0.28885760       2.53867602
Si      -2.97794679       3.58236096       5.05635008
Si      -3.44996572      -2.68595906       6.28817224
Si      -0.73016096       6.66706884      -1.07951305
Si       1.05397635       1.38582852       3.87998974
Si       1.01788891       7.64529218      -1.80526046
Si      -0.89980785      -1.25039309       3.28117257
Si       2.77657892      -4.85431641       6.38620309
Si       0.22742222       3.16607106       3.03841004
Si      -2.82297715       2.51552349       6.88633950
Si      -1.40946548       4.46665134       3.42250258
Si      -1.81535321      -2.17180167       7.58616382
22
Lattice="5.5711283434203 -0.7495727364100314 -1.3414803433873073 -2.6482045807478576 10.447951054359107 -2.033319902289066 -4.517671323880097 -4.937585141643797 10.74527142859817" Properties=species:S:1:pos:R:3 unique_starting_index=18 config_type=initial n_minim_iter=14 stress="-1.0917883629800927e-06 8.01509428982554e-06 3.503516360494591e-06 8.01509428982554e-06 -2.336285326626077e-06 3.695480242695845e-06 3.503516360494591e-06 3.695480242695845e-06 2.1523133507597152e-07" pbc="T T T"
Si      -0.27224088       9.09802906      -0.95195127
Si      -1.54551848      -1.22302099       5.70283488
Si      -3.75364463      -3.45153428       9.53347173
Si       0.28288949      -2.74518572       8.68966827
Si      -5.62880984      -0.23133391       8.88965110
Si       4.23434131       2.02045049       0.21870008
Si       2.17568873       0.68932607       0.40527720
Si      -1.46603569       0.49036581       6.95867614
Si      -1.63894664      -3.31972156       9.37695514
Si      -2.66970202       1.09932679       5.31553170
Si       1.17855009      -0.28899940       2.53877595
Si      -2.97776987       3.58243556       5.05624430
Si      -3.44983117      -2.68617852       6.28819723
Si      -0.73029580       6.66732009      -1.07954030
Si       1.05399830       1.38592506       3.88001633
Si       1.01781918       7.64553054      -1.80527791
Si      -0.89977308      -1.25045519       3.28118369
Si       2.77677718      -4.85458781       6.38614931
Si       0.22736504       3.16615967       3.03838792
Si      -2.82281326       2.51555729       6.88619140
Si      -1.40937121       4.46676967       3.42236143
Si      -1.81525203      -2.17188182       7.58616801
22
Lattice="5.571057557350181 -0.7496933099286094 -1.3413716780861853 -2.6484109748037516 10.44845085996526 -2.0334924493543416 -4.517352377681812 -4.937844775761469 10.745188626396823" Properties=species:S:1:pos:R:3 unique_starting_index=18 config_type=initial n_minim_iter=15 stress="6.304482716326644e-06 1.5674156566100927e-06 -2.8367096726903456e-06 1.5674156566100927e-06 1.4779118954340381e-05 -3.904073846446345e-06 -2.8367096726903456e-06 -3.904073846446345e-06 4.768476730938372e-06" pbc="T T T"
Si      -0.27252249       9.09833787      -0.95217053
Si      -1.54555189      -1.22309670       5.70284398
Si      -3.75324677      -3.45165449       9.53332312
Si       0.28326403      -2.74519723       8.68954577
Si      -5.62871231      -0.23127911       8.88955487
Si       4.23435474       2.02039994       0.21868957
Si       2.17564648       0.68937031       0.40523319
Si      -1.46590121       0.49030563       6.95862739
Si      -1.63855052      -3.32006976       9.37686885
Si      -2.66972410       1.09931863       5.31547646
Si       1.17864357      -0.28918597       2.53890658
Si      -2.97764714       3.58254079       5.05612942
Si      -3.44971012      -2.68641442       6.28824283
Si      -0.73052295       6.66766101      -1.07962903
Si       1.05404118       1.38596946       3.88003095
Si       1.01764794       7.64583738      -1.80535028
Si      -0.89976005      -1.25055696       3.28117013
Si       2.77706850      -4.85500361       6.38613361
Si       0.22728882       3.16622538       3.03833592
Si      -2.82273148       2.51563315       6.88606306
Si      -1.40939453       4.46694115       3.42217981
Si      -1.81517273      -2.17199257       7.58614870
22
Lattice="5.570896855663667 -0.7498504287335396 -1.341199527400268 -2.648686141141258 10.448720144941 -2.033618492185147 -4.516813430193076 -4.937891541268994 10.744954713811552" Properties=species:S:1:pos:R:3 unique_starting_index=18 config_type=initial n_minim_iter=16 stress="-4.871135418737542e-06 -2.1196898704767484e-06 1.943684218113052e-06 -2.1196898704767484e-06 1.1392258757675679e-05 -6.909464496793385e-06 1.943684218113052e-06 -6.909464496793385e-06 -3.219970567749851e-05" pbc="T T T"
Si      -0.27289514       9.09840321      -0.95238529
Si      -1.54554769      -1.22309353       5.70277237
Si      -3.75260091      -3.45158483       9.53297398
Si       0.28378785      -2.74502845       8.68932805
Si      -5.62842671      -0.23108478       8.88937846
Si       4.23434893       2.02026015       0.21874478
Si       2.17555685       0.68935845       0.40526345
Si      -1.46574783       0.49035040       6.95846869
Si      -1.63791623      -3.32029322       9.37656494
Si      -2.66966549       1.09929908       5.31541244
Si       1.17873996      -0.28936643       2.53909692
Si      -2.97737724       3.58264249       5.05598244
Si      -3.44950338      -2.68653128       6.28819901
Si      -0.73079207       6.66786899      -1.07970009
Si       1.05404277       1.38597314       3.88002163
Si       1.01735338       7.64594237      -1.80533978
Si      -0.89972952      -1.25062320       3.28109064
Si       2.77745081      -4.85532053       6.38609354
Si       0.22727372       3.16616334       3.03829651
Si      -2.82257426       2.51575227       6.88592292
Si      -1.40941720       4.46707384       3.42198515
Si      -1.81503108      -2.17203151       7.58609459
22
Lattice="5.570740804736464 -0.7499714902554275 -1.3410071616850163 -2.6489494324857294 10.448588408818505 -2.033712087224778 -4.516157787847376 -4.937632612113358 10.745020908250233" Properties=species:S:1:pos:R:3 unique_starting_index=18 config_type=initial n_minim_iter=17 stress="-9.125629894555892e-06 -9.625634256947403e-07 4.329247015395354e-06 -9.625634256947403e-07 -1.3968285188004313e-06 1.4527776451254064e-06 4.329247015395354e-06 1.4527776451254064e-06 -2.1274328694633214e-06" pbc="T T T"
Si      -0.27329334       9.09824005      -0.95249447
Si      -1.54548755      -1.22299534       5.70287521
Si      -3.75185333      -3.45124232       9.53285636
Si       0.28449886      -2.74471325       8.68948670
Si      -5.62808739      -0.23068395       8.88942472
Si       4.23438344       2.02007382       0.21890461
Si       2.17552712       0.68932584       0.40532552
Si      -1.46553445       0.49052825       6.95855921
Si      -1.63710697      -3.32033962       9.37667548
Si      -2.66951952       1.09933638       5.31563651
Si       1.17885390      -0.28947044       2.53943351
Si      -2.97701145       3.58267214       5.05605385
Si      -3.44928015      -2.68647841       6.28829199
Si      -0.73105039       6.66784140      -1.07971659
Si       1.05410695       1.38599124       3.88018069
Si       1.01713960       7.64570858      -1.80531894
Si      -0.89967530      -1.25061048       3.28110367
Si       2.77788120      -4.85539578       6.38627180
Si       0.22732602       3.16604465       3.03845974
Si      -2.82231386       2.51584504       6.88604905
Si      -1.40928790       4.46707003       3.42198753
Si      -1.81478679      -2.17187118       7.58628932
22
Lattice="5.570740244589117 -0.7500553140168426 -1.3408587861986587 -2.649192971408881 10.448579566786787 -2.0338420093985707 -4.515801950669395 -4.937576710387297 10.744968616704364" Properties=species:S:1:pos:R:3 unique_starting_index=18 config_type=initial n_minim_iter=18 stress="-3.1852437132748504e-06 7.318183375196341e-06 -6.668982218805262e-07 7.318183375196341e-06 1.9997551088027853e-06 -8.082318768338282e-06 -6.668982218805262e-07 -8.082318768338282e-06 3.1585727284158435e-06" pbc="T T T"
Si      -0.27355691       9.09817391      -0.95269688
Si      -1.54551535      -1.22296931       5.70294722
Si      -3.75137155      -3.45107302       9.53262495
Si       0.28506533      -2.74463604       8.68953783
Si      -5.62800862      -0.23051873       8.88930059
Si       4.23447044       2.01993430       0.21894408
Si       2.17555315       0.68925561       0.40537619
Si      -1.46548371       0.49062446       6.95850088
Si      -1.63654071      -3.32049293       9.37663464
Si      -2.66951181       1.09928769       5.31565056
Si       1.17893626      -0.28956572       2.53965438
Si      -2.97685012       3.58261507       5.05601431
Si      -3.44921754      -2.68654632       6.28833051
Si      -0.73129660       6.66791264      -1.07972703
Si       1.05420515       1.38598104       3.88021672
Si       1.01699000       7.64568749      -1.80532319
Si      -0.89967960      -1.25064669       3.28107753
Si       2.77825313      -4.85549682       6.38633380
Si       0.22734575       3.16598615       3.03849906
Si      -2.82221201       2.51591090       6.88604453
Si      -1.40921645       4.46701033       3.42187904
Si      -1.81466144      -2.17184654       7.58635830
22
Lattice="5.570802563822654 -0.7503043099803689 -1.3407179273058374 -2.649727618263535 10.44859258660818 -2.033794088794994 -4.5153408668991295 -4.937209762597046 10.744843761234721" Properties=species:S:1:pos:R:3 unique_starting_index=18 config_type=initial n_minim_iter=19 stress="2.2578715204026986e-06 -4.567488361633248e-06 -1.8152333901389649e-06 -4.567488361633248e-06 5.418232050251108e-06 -4.485857815553497e-06 -1.8152333901389649e-06 -4.485857815553497e-06 9.749709066435929e-06" pbc="T T T"
Si      -0.27407620       9.09812025      -0.95276099
Si      -1.54555456      -1.22278335       5.70303774
Si      -3.75070346      -3.45058880       9.53230319
Si       0.28574072      -2.74439715       8.68958236
Si      -5.62804563      -0.23006253       8.88914998
Si       4.23457100       2.01968525       0.21902572
Si       2.17559959       0.68912309       0.40541691
Si      -1.46540408       0.49085241       6.95853111
Si      -1.63588243      -3.32046249       9.37648188
Si      -2.66960719       1.09946330       5.31569097
Si       1.17902903      -0.28966262       2.53988340
Si      -2.97673946       3.58276587       5.05599986
Si      -3.44912691      -2.68643050       6.28835982
Si      -0.73175849       6.66803014      -1.07958115
Si       1.05423247       1.38597020       3.88030488
Si       1.01664798       7.64562546      -1.80518207
Si      -0.89967219      -1.25060363       3.28104962
Si       2.77880224      -4.85555969       6.38628932
Si       0.22733914       3.16596407       3.03859058
Si      -2.82218098       2.51610009       6.88605043
Si      -1.40925877       4.46705407       3.42186551
Si      -1.81450669      -2.17168605       7.58647864
22
Lattice="5.5708618167296935 -0.7504900465726642 -1.3406610663828047 -2.650106125323932 10.44844643806265 -2.033634769373778 -4.515044915604736 -4.936733546197406 10.744867286297463" Properties=species:S:1:pos:R:3 unique_starting_index=18 config_type=initial n_minim_iter=20 stress="8.307504259563547e-06 -3.2299926536521424e-06 -3.0536100134201826e-06 -3.2299926536521424e-06 -6.45206345466988e-06 3.007854579736174e-06 -3.0536100134201826e-06 3.007854579736174e-06 2.3973015401740778e-05" pbc="T T T"
Si      -0.27445529       9.09795661      -0.95273038
Si      -1.54567733      -1.22252941       5.70324704
Si      -3.75014786      -3.44997320       9.53213032
Si       0.28625253      -2.74399022       8.68970731
Si      -5.62808459      -0.22960989       8.88922435
Si       4.23467392       2.01947007       0.21906817
Si       2.17566650       0.68903335       0.40540450
Si      -1.46540145       0.49114183       6.95868352
Si      -1.63528044      -3.32034788       9.37650728
Si      -2.66971791       1.09965125       5.31584464
Si       1.17908008      -0.28973138       2.54008583
Si      -2.97667082       3.58288607       5.05607630
Si      -3.44914458      -2.68620226       6.28845738
Si      -0.73214263       6.66806916      -1.07935603
Si       1.05424278       1.38605060       3.88046469
Si       1.01637076       7.64551683      -1.80498185
Si      -0.89971028      -1.25051418       3.28109557
Si       2.77924204      -4.85555323       6.38625274
Si       0.22737322       3.16595030       3.03875147
Si      -2.82218436       2.51626722       6.88622510
Si      -1.40925107       4.46705623       3.42197708
Si      -1.81456077      -2.17149376       7.58668489
22
Lattice="5.570852172178762 -0.7506051590626552 -1.3406495509646796 -2.6502875505708436 10.44850331203829 -2.0335251625105184 -4.514887774533024 -4.936531112045707 10.744858429174059" Properties=species:S:1:pos:R:3 unique_starting_index=18 config_type=initial n_minim_iter=21 stress="2.1058407639503222e-06 1.8298361566946148e-06 -7.518438444694716e-06 1.8298361566946148e-06 1.2582397615468939e-07 6.104771288405774e-06 -7.518438444694716e-06 6.104771288405774e-06 2.591359099106483e-05" pbc="T T T"
Si      -0.27470971       9.09801473      -0.95270510
Si      -1.54583489      -1.22237974       5.70343641
Si      -3.74973125      -3.44957285       9.53194544
Si       0.28658949      -2.74374129       8.68972752
Si      -5.62819193      -0.22935622       8.88928057
Si       4.23476408       2.01937746       0.21909792
Si       2.17568365       0.68897347       0.40540413
Si      -1.46544617       0.49131964       6.95874244
Si      -1.63488952      -3.32041986       9.37641093
Si      -2.66978099       1.09975321       5.31594606
Si       1.17907058      -0.28980166       2.54017145
Si      -2.97660937       3.58296080       5.05611506
Si      -3.44922126      -2.68607942       6.28850169
Si      -0.73239778       6.66820416      -1.07920281
Si       1.05420593       1.38611145       3.88055271
Si       1.01619127       7.64556304      -1.80488464
Si      -0.89977461      -1.25048265       3.28114583
Si       2.77951206      -4.85569577       6.38620129
Si       0.22741096       3.16600451       3.03881389
Si      -2.82221952       2.51640398       6.88628395
Si      -1.40922699       4.46705231       3.42201195
Si      -1.81464947      -2.17137938       7.58677133
