22
Lattice="5.550289330192769 -0.6326577327168073 -1.460029835207408 -2.3465804307347584 10.596173097011143 -1.9908175318605243 -4.860117528381327 -5.176306654727327 10.772058024696916" Properties=species:S:1:pos:R:3 unique_starting_index=18 config_type=initial n_minim_iter=1 energy=-3583.5555381906706 free_energy=-3583.5555381906706 pbc="T T T"
Si      -0.03634748       9.34880777      -1.01181454
Si      -1.53719304      -1.25237340       5.64115317
Si      -4.23099289      -3.59994577       9.66055527
Si      -0.18176095      -2.78622669       8.69444886
Si      -5.56615773      -0.39434062       8.94254380
Si       4.15891133       2.13308626       0.01158948
Si       2.22618231       0.79752983       0.27075782
Si      -1.71430549       0.20711717       7.17593100
Si      -2.16296443      -3.34719306       9.24669523
Si      -2.74617630       0.93493487       5.46219158
Si       1.10429514      -0.26656655       2.49052995
Si      -2.93024255       3.46099995       5.09074590
Si      -3.27030346      -2.79370555       6.16506128
Si      -0.60770942       6.84208763      -1.20126290
Si       1.02709987       1.44257968       3.80338547
Si       1.17377576       7.81834615      -1.84260142
Si      -0.93751221      -1.29253021       3.23979319
Si       2.31584366      -4.95927366       6.22377864
Si       0.19239671       3.19906039       2.91107558
Si      -2.83378543       2.44213930       6.95139253
Si      -1.52459543       4.28802473       3.52154645
Si      -1.88996797      -2.02202909       7.59086885
22
Lattice="5.549982022880712 -0.6327136861691067 -1.4603897020475858 -2.3463193563400067 10.595152312248569 -1.9899612563943843 -4.860575982674237 -5.175298888746249 10.77131228629991" Properties=species:S:1:pos:R:3 unique_starting_index=18 config_type=initial n_minim_iter=2 stress="-0.0012116980374448673 -4.7759294046750825e-06 0.00010983211368519537 -4.7759294046750825e-06 -0.0008631554778014576 8.21366412879784e-05 0.00010983211368519537 8.21366412879784e-05 -0.0010232734640279436" pbc="T T T"
Si      -0.03637423       9.34796805      -1.01128703
Si      -1.53752317      -1.25197132       5.64080153
Si      -4.23143129      -3.59914989       9.65990567
Si      -0.18242599      -2.78551365       8.69357603
Si      -5.56650040      -0.39380409       8.94225725
Si       4.15856722       2.13286205       0.01137151
Si       2.22598086       0.79744277       0.27059334
Si      -1.71469611       0.20747801       7.17541509
Si      -2.16352137      -3.34644432       9.24588197
Si      -2.74642617       0.93513137       5.46203269
Si       1.10400744      -0.26642237       2.49025492
Si      -2.93049855       3.46093861       5.09071107
Si      -3.27057152      -2.79316022       6.16463154
Si      -0.60765341       6.84137481      -1.20078366
Si       1.02676155       1.44265217       3.80302251
Si       1.17382583       7.81753175      -1.84217329
Si      -0.93768826      -1.29227175       3.23952317
Si       2.31522679      -4.95853508       6.22286466
Si       0.19210977       3.19890156       2.91100772
Si      -2.83414168       2.44226158       6.95116399
Si      -1.52477636       4.28778645       3.52155507
Si      -1.89042752      -2.02150409       7.59036789
22
Lattice="5.551126327870851 -0.6329491502609409 -1.461764432485559 -2.346412880686712 10.595311668636622 -1.9887123235057909 -4.863530875654952 -5.174434911431398 10.772821971565238" Properties=species:S:1:pos:R:3 unique_starting_index=18 config_type=initial n_minim_iter=3 stress="0.0006233211571928124 -0.00021740821690960396 -0.0008659541889663433 -0.00021740821690960396 0.00024692989845056563 0.0006248484690543568 -0.0008659541889663433 0.0006248484690543568 0.00019670364996446162" pbc="T T T"
Si      -0.03646154       9.34828820      -1.01056547
Si      -1.53894223      -1.25145232       5.64166847
Si      -4.23412627      -3.59840456       9.66124736
Si      -0.18424358      -2.78464626       8.69399146
Si      -5.56938268      -0.39282809       8.94426512
Si       4.15913566       2.13284752       0.01074708
Si       2.22623225       0.79739946       0.27022741
Si      -1.71628707       0.20825822       7.17617853
Si      -2.16576753      -3.34571379       9.24661167
Si      -2.74804363       0.93564696       5.46323897
Si       1.10363268      -0.26619217       2.49033432
Si      -2.93220063       3.46152203       5.09198175
Si      -3.27251283      -2.79273563       6.16540617
Si      -0.60773250       6.84128313      -1.20013358
Si       1.02622257       1.44309113       3.80313387
Si       1.17446139       7.81749457      -1.84190530
Si      -0.93848250      -1.29207720       3.23983236
Si       2.31441938      -4.95810389       6.22255306
Si       0.19142404       3.19920629       2.91163066
Si      -2.83606547       2.44293141       6.95263521
Si      -1.52576715       4.28810524       3.52245609
Si      -1.89234345      -2.02097475       7.59152720
22
Lattice="5.550862859451527 -0.6325090707290761 -1.461294511105203 -2.3460261821399504 10.5952822249566 -1.9902061042271797 -4.862781571369524 -5.17582520610327 10.773489023006313" Properties=species:S:1:pos:R:3 unique_starting_index=18 config_type=initial n_minim_iter=4 stress="6.449120862724848e-05 0.0005689979912443947 -0.0005248680385640722 0.0005689979912443947 -0.0005556606969359221 -0.0005438419396716777 -0.0005248680385640722 -0.0005438419396716777 0.0008040249531489216" pbc="T T T"
Si      -0.03619151       9.34834511      -1.01173125
Si      -1.53850227      -1.25211286       5.64215933
Si      -4.23341948      -3.59969984       9.66164604
Si      -0.18359401      -2.78543297       8.69457937
Si      -5.56867145      -0.39399034       8.94434137
Si       4.15914645       2.13300947       0.01094230
Si       2.22625136       0.79743350       0.27032071
Si      -1.71541410       0.20750410       7.17611019
Si      -2.16513329      -3.34686753       9.24707569
Si      -2.74753159       0.93490217       5.46322095
Si       1.10380280      -0.26637453       2.49071417
Si      -2.93163720       3.46079988       5.09145737
Si      -3.27225430      -2.79364378       6.16549987
Si      -0.60760454       6.84111755      -1.20099169
Si       1.02672018       1.44274111       3.80310958
Si       1.17476667       7.81764076      -1.84272709
Si      -0.93822649      -1.29254362       3.23999259
Si       2.31475976      -4.95857615       6.22366628
Si       0.19174803       3.19883598       2.91158196
Si      -2.83527277       2.44188279       6.95248977
Si      -1.52513535       4.28741410       3.52188525
Si      -1.89181005      -2.02196756       7.59217987
22
Lattice="5.550718564136422 -0.6333564150437513 -1.459928823961424 -2.347751822266029 10.597378806711289 -1.9898947272077836 -4.8599471641849945 -5.175651173314599 10.770628129004974" Properties=species:S:1:pos:R:3 unique_starting_index=18 config_type=initial n_minim_iter=5 stress="0.0004953476832323672 -0.00044477362893196855 0.0003187297214536282 -0.00044477362893196855 -0.000289586614778354 0.0002020629181028277 0.0003187297214536282 0.0002020629181028277 5.9836823504064806e-05" pbc="T T T"
Si      -0.03762939       9.35005335      -1.01122317
Si      -1.53718260      -1.25188353       5.64128296
Si      -4.23099482      -3.59942319       9.65902332
Si      -0.18134127      -2.78525056       8.69301050
Si      -5.56695120      -0.39284271       8.94197365
Si       4.15893905       2.13288841       0.01203902
Si       2.22627086       0.79732285       0.27070981
Si      -1.71365871       0.20839348       7.17442946
Si      -2.16282178      -3.34685155       9.24501431
Si      -2.74655636       0.93565371       5.46195250
Si       1.10437940      -0.26637065       2.49078250
Si      -2.93108893       3.46209701       5.09015294
Si      -3.27089334      -2.79356386       6.16347961
Si      -0.60880106       6.84214346      -1.20057458
Si       1.02749150       1.44313270       3.80268487
Si       1.17355446       7.81881611      -1.84171762
Si      -0.93735089      -1.29260585       3.23918334
Si       2.31683897      -4.95937952       6.22307864
Si       0.19193297       3.19950823       2.91158838
Si      -2.83407563       2.44293982       6.95104711
Si      -1.52480429       4.28834901       3.52111548
Si      -1.89006568      -2.02179977       7.59079940
22
Lattice="5.549434908700553 -0.6331353530778638 -1.4595930743401073 -2.346063294857836 10.603553901431711 -1.989361245723639 -4.859431821936818 -5.179246002403476 10.768178486488578" Properties=species:S:1:pos:R:3 unique_starting_index=18 config_type=initial n_minim_iter=6 stress="0.00017523003237011856 0.0011467981916050373 0.00010957339834712626 0.0011467981916050373 0.0006950833980172314 0.0007519585676796786 0.00010957339834712626 0.0007519585676796786 -0.0005697816919362368" pbc="T T T"
Si      -0.03667197       9.35569672      -1.01119922
Si      -1.53696366      -1.25287973       5.64053592
Si      -4.23051935      -3.60205679       9.65657936
Si      -0.18138876      -2.78648739       8.69083407
Si      -5.56604467      -0.39339166       8.94024635
Si       4.15816950       2.13461404       0.01221143
Si       2.22590974       0.79804621       0.27050161
Si      -1.71268073       0.20916061       7.17238888
Si      -2.16259938      -3.34926801       9.24298213
Si      -2.74602553       0.93599190       5.46081066
Si       1.10410796      -0.26626270       2.49066753
Si      -2.92996834       3.46420499       5.08893899
Si      -3.27075473      -2.79570115       6.16169988
Si      -0.60806530       6.84583495      -1.20016905
Si       1.02754194       1.44405470       3.80155466
Si       1.17414352       7.82381508      -1.84086306
Si      -0.93717881      -1.29367325       3.23830519
Si       2.31595219      -4.96204339       6.22167815
Si       0.19229370       3.20133486       2.91142194
Si      -2.83304906       2.44414160       6.94948002
Si      -1.52382876       4.29055699       3.52014997
Si      -1.89025099      -2.02334421       7.58928240
22
Lattice="5.548094197126494 -0.6346862013542516 -1.4597439303396074 -2.3481580734472325 10.610362528282787 -1.991380050502148 -4.857333529560679 -5.183052733137806 10.768956439719155" Properties=species:S:1:pos:R:3 unique_starting_index=18 config_type=initial n_minim_iter=7 stress="-0.0007521631372706926 -0.0005777768295051341 -0.000619211403774145 -0.0005777768295051341 0.0012188315651547217 -0.0005585570499836311 -0.000619211403774145 -0.0005585570499836311 -0.0003559361739597392" pbc="T T T"
Si      -0.03925033       9.36090085      -1.01358589
Si      -1.53654039      -1.25449735       5.64115480
Si      -4.22915444      -3.60499142       9.65671690
Si      -0.18087075      -2.78933956       8.69060481
Si      -5.56531562      -0.39378042       8.94053387
Si       4.15623118       2.13456505       0.01164171
Si       2.22505915       0.79774159       0.26999667
Si      -1.71201068       0.20925195       7.17146430
Si      -2.16145770      -3.35276932       9.24335712
Si      -2.74609512       0.93613619       5.46052256
Si       1.10367656      -0.26709232       2.49107100
Si      -2.93040041       3.46603029       5.08799180
Si      -3.26974958      -2.79778591       6.16172920
Si      -0.60983913       6.84945854      -1.20144049
Si       1.02673908       1.44371528       3.80049428
Si       1.17164730       7.82830544      -1.84198923
Si      -0.93662500      -1.29508821       3.23826637
Si       2.31635411      -4.96671860       6.22215459
Si       0.19133313       3.20205426       2.91109848
Si      -2.83321456       2.44466442       6.94851848
Si      -1.52467354       4.29227763       3.51886457
Si      -1.89025776      -2.02583050       7.58957524
22
Lattice="5.54744738933764 -0.6359424215858994 -1.45852387486723 -2.3504036352363644 10.614565266575957 -1.9919965887053535 -4.853397965597199 -5.183884926900734 10.768669706629854" Properties=species:S:1:pos:R:3 unique_starting_index=18 config_type=initial n_minim_iter=8 stress="0.000298798186097887 4.321548036675672e-06 -0.00024541456140257726 4.321548036675672e-06 -0.00033654485183300136 6.408798042600104e-05 -0.00024541456140257726 6.408798042600104e-05 -0.00034820489654968173" pbc="T T T"
Si      -0.04134705       9.36402553      -1.01468030
Si      -1.53476554      -1.25487766       5.64264255
Si      -4.22667839      -3.60539071       9.65577794
Si      -0.17731748      -2.78903545       8.69050973
Si      -5.56366630      -0.39227302       8.94097900
Si       4.15525574       2.13443723       0.01319639
Si       2.22489702       0.79736774       0.27022699
Si      -1.70832542       0.21237911       7.17042225
Si      -2.15757357      -3.35400762       9.24385627
Si      -2.74535213       0.93728142       5.46040415
Si       1.10423020      -0.26700174       2.49296572
Si      -2.92954017       3.46829511       5.08793436
Si      -3.26817863      -2.79846911       6.16051190
Si      -0.61158505       6.85082727      -1.20130795
Si       1.02763893       1.44423968       3.79996671
Si       1.16916843       7.83138156      -1.84044673
Si      -0.93508959      -1.29596128       3.23796636
Si       2.31881435      -4.96894906       6.22282211
Si       0.19213560       3.20216975       2.91288172
Si      -2.83136816       2.44615370       6.94769439
Si      -1.52428123       4.29364607       3.51837071
Si      -1.88944121      -2.02685851       7.59034873
22
Lattice="5.543871462602539 -0.6368664447569856 -1.457103539290859 -2.350877920851675 10.62046959623783 -1.9934625200314469 -4.846588542174995 -5.18629505402497 10.769941370361439" Properties=species:S:1:pos:R:3 unique_starting_index=18 config_type=initial n_minim_iter=9 stress="-0.0021170098206810106 -0.00018259355491634637 0.00022371356300182526 -0.00018259355491634637 0.00017551524519662757 0.0010581733245238812 0.00022371356300182526 0.0010581733245238812 0.0020771526690307324" pbc="T T T"
Si      -0.04316061       9.36940030      -1.01563066
Si      -1.53190190      -1.25534847       5.64446078
Si      -4.22129033      -3.60681393       9.65646355
Si      -0.17345454      -2.79013533       8.69226913
Si      -5.55859025      -0.39197630       8.94209812
Si       4.15257280       2.13502674       0.01481772
Si       2.22357275       0.79711334       0.27102149
Si      -1.70391831       0.21411872       7.17061802
Si      -2.15256477      -3.35607351       9.24552615
Si      -2.74245610       0.93798416       5.46064264
Si       1.10444539      -0.26723681       2.49471500
Si      -2.92640179       3.47060910       5.08859853
Si      -3.26427901      -2.79992537       6.16076458
Si      -0.61231809       6.85401560      -1.20153801
Si       1.02798023       1.44489664       3.80052963
Si       1.16698513       7.83526928      -1.84041355
Si      -0.93295674      -1.29691786       3.23849412
Si       2.32008672      -4.97202752       6.22480571
Si       0.19312489       3.20303726       2.91454562
Si      -2.82766209       2.44794467       6.94802697
Si      -1.52259531       4.29579394       3.51843756
Si      -1.88669132      -2.02844005       7.59204315
22
Lattice="5.541665611079205 -0.6374635916856651 -1.4540520486315205 -2.3522922386842655 10.629508390961398 -1.9978063430775537 -4.839975598481576 -5.193694978098121 10.766313240591723" Properties=species:S:1:pos:R:3 unique_starting_index=18 config_type=initial n_minim_iter=10 stress="-0.0003823138692382272 -0.0001403091336954255 1.638929851237682e-05 -0.0001403091336954255 -7.610219085609496e-05 3.976425494576161e-05 1.638929851237682e-05 3.976425494576161e-05 2.4589058689480787e-05" pbc="T T T"
Si      -0.04552108       9.37760041      -1.01962780
Si      -1.52887304      -1.25792852       5.64389983
Si      -4.21643364      -3.61233466       9.65210887
Si      -0.16830336      -2.79468332       8.68971171
Si      -5.55471395      -0.39497756       8.93799295
Si       4.15098890       2.13601180       0.01626590
Si       2.22283159       0.79663033       0.27160384
Si      -1.69867045       0.21435538       7.16555920
Si      -2.14694603      -3.36249763       9.24274851
Si      -2.73988099       0.93702964       5.45704286
Si       1.10523999      -0.26843129       2.49564499
Si      -2.92335211       3.47210252       5.08507216
Si      -3.26073265      -2.80433195       6.15800489
Si      -0.61334507       6.85889782      -1.20323915
Si       1.02870875       1.44452956       3.79804673
Si       1.16493672       7.84145431      -1.84196556
Si      -0.93046014      -1.29949649       3.23754203
Si       2.32271399      -4.97848372       6.22490878
Si       0.19480285       3.20308729       2.91393801
Si      -2.82400548       2.44796037       6.94273728
Si      -1.52094573       4.29757386       3.51463811
Si      -1.88436038      -2.03359932       7.59000279
22
Lattice="5.538426428141425 -0.6370620587612127 -1.4505067434523327 -2.351672320446078 10.639831352927702 -2.003208860134202 -4.832380372819294 -5.203298574393901 10.763831718754972" Properties=species:S:1:pos:R:3 unique_starting_index=18 config_type=initial n_minim_iter=11 stress="-0.0003072951519158046 -5.043269803583966e-05 0.00016802145441330714 -5.043269803583966e-05 5.789703536208277e-05 3.827974823203685e-06 0.00016802145441330714 3.827974823203685e-06 0.0001896418377954911" pbc="T T T"
Si      -0.04635032       9.38743716      -1.02464054
Si      -1.52515384      -1.26136638       5.64363539
Si      -4.21044736      -3.61970380       9.64842266
Si      -0.16260217      -2.79964787       8.68853944
Si      -5.54948139      -0.40018900       8.93493655
Si       4.14944704       2.13807405       0.01810751
Si       2.22190918       0.79657644       0.27185036
Si      -1.69266102       0.21610691       7.16057412
Si      -2.14093128      -3.37149419       9.24148599
Si      -2.73652313       0.93583441       5.45349401
Si       1.10621552      -0.27001888       2.49699424
Si      -2.91914957       3.47309878       5.08166308
Si      -3.25665489      -2.81045849       6.15601543
Si      -0.61295735       6.86473854      -1.20441274
Si       1.03090762       1.44473157       3.79610683
Si       1.16425976       7.84963508      -1.84445955
Si      -0.92727819      -1.30261600       3.23731062
Si       2.32510749      -4.98517538       6.22611592
Si       0.19786521       3.20317116       2.91383860
Si      -2.81877989       2.44739458       6.93830748
Si      -1.51797843       4.29971890       3.51101851
Si      -1.88166859      -2.04052993       7.58935279
22
Lattice="5.533308105963149 -0.6357332218131926 -1.4434101598706293 -2.3506287475011693 10.65969491192491 -2.0160427351244907 -4.819332863309884 -5.224727762298527 10.75803238817676" Properties=species:S:1:pos:R:3 unique_starting_index=18 config_type=initial n_minim_iter=12 stress="0.00035520760399468664 -0.00013188997820872585 0.0002465154706049648 -0.00013188997820872585 0.0001350019329170378 -0.0002583381582493521 0.0002465154706049648 -0.0002583381582493521 9.123669239603275e-05" pbc="T T T"
Si      -0.04734707       9.40594647      -1.03772534
Si      -1.51898532      -1.27034033       5.64351269
Si      -4.20063465      -3.63721411       9.63969259
Si      -0.15355909      -2.81097448       8.68582027
Si      -5.54443984      -0.41185552       8.92735052
Si       4.14751258       2.14193464       0.02025218
Si       2.22016803       0.79575253       0.27172389
Si      -1.67974566       0.21898801       7.14899109
Si      -2.12878785      -3.39245162       9.23711625
Si      -2.72956939       0.93102173       5.44354412
Si       1.10826383      -0.27467513       2.49861723
Si      -2.91196636       3.47352036       5.07254640
Si      -3.25023269      -2.82478772       6.15172971
Si      -0.61116286       6.87589464      -1.20647056
Si       1.03388978       1.44503511       3.79117698
Si       1.16320584       7.86683610      -1.85105304
Si      -0.92099688      -1.30956868       3.23684924
Si       2.32993507      -4.99906479       6.22747812
Si       0.20394399       3.20246515       2.91199206
Si      -2.80964393       2.44411382       6.92826999
Si      -1.51240985       4.30298384       3.50227245
Si      -1.87681267      -2.05672744       7.58638306
22
Lattice="5.526944286272498 -0.6351309286132854 -1.4312022698533644 -2.352460102161813 10.697357901239302 -2.03727782579902 -4.797165253929363 -5.260704366004124 10.74877378655338" Properties=species:S:1:pos:R:3 unique_starting_index=18 config_type=initial n_minim_iter=13 stress="0.002460114148336715 -0.0006080980161852927 0.0009696542083445102 -0.0006080980161852927 0.0026725406211618274 -0.0005105075153496322 0.0009696542083445102 -0.0005105075153496322 0.00039145610189137065" pbc="T T T"
Si      -0.05201731       9.44172110      -1.05899107
Si      -1.50900042      -1.28602478       5.64505961
Si      -4.18320917      -3.66663356       9.62526821
Si      -0.13787056      -2.83031203       8.68294515
Si      -5.53741920      -0.42818761       8.91521438
Si       4.14563748       2.14814567       0.02402150
Si       2.21750197       0.79354725       0.27215088
Si      -1.65758825       0.22668052       7.13075723
Si      -2.10731450      -3.42779501       9.22968182
Si      -2.72000477       0.92682370       5.42643550
Si       1.11243642      -0.28330303       2.50131862
Si      -2.90132566       3.47592793       5.05883429
Si      -3.24029503      -2.84939430       6.14442005
Si      -0.60799340       6.89766487      -1.20846861
Si       1.04071645       1.44434356       3.78485860
Si       1.15992332       7.89720093      -1.86125350
Si      -0.91008470      -1.32132215       3.23639067
Si       2.34028223      -5.02448393       6.22941028
Si       0.21269885       3.20435306       2.90878824
Si      -2.79516795       2.43977776       6.90929138
Si      -1.50347574       4.31093534       3.48850341
Si      -1.86865067      -2.08528872       7.58214611
22
Lattice="5.518908706868706 -0.6329513985171941 -1.417645649457628 -2.3543017455184176 10.73738453748152 -2.071870864363765 -4.770885632981407 -5.308467964788305 10.750330511020124" Properties=species:S:1:pos:R:3 unique_starting_index=18 config_type=initial n_minim_iter=14 stress="0.00760875514331964 -0.0013646707008911259 0.001596781140205553 -0.0013646707008911259 0.006656849362670432 -0.0007052049899176554 0.001596781140205553 -0.0007052049899176554 0.00246418897590691" pbc="T T T"
Si      -0.05876773       9.48163618      -1.09498640
Si      -1.49863923      -1.30800982       5.65813453
Si      -4.16178558      -3.70615521       9.61635240
Si      -0.11821227      -2.85619361       8.68841477
Si      -5.53425621      -0.45211831       8.91138484
Si       4.14343436       2.15368396       0.02665774
Si       2.21303524       0.78865275       0.27030749
Si      -1.62822932       0.24147948       7.10809752
Si      -2.08289564      -3.48020247       9.23173918
Si      -2.70737612       0.91651769       5.40517173
Si       1.11728964      -0.29719069       2.50763044
Si      -2.88859235       3.47346513       5.04473690
Si      -3.23078988      -2.88437853       6.14199937
Si      -0.59900058       6.91969937      -1.21060785
Si       1.04732877       1.44035662       3.77906307
Si       1.15570070       7.93068750      -1.87935417
Si      -0.89512632      -1.33792476       3.24016467
Si       2.35202926      -5.05595344       6.23661698
Si       0.22399539       3.20238068       2.90637639
Si      -2.77759939       2.42870907       6.88964988
Si      -1.49144912       4.31595325       3.47227295
Si      -1.86289546      -2.13018460       7.58651709
22
Lattice="5.5152967260074215 -0.629296048210083 -1.4127279115379414 -2.355362026381669 10.74139369002402 -2.1032671380123062 -4.759434567644807 -5.335577009865505 10.770261526434874" Properties=species:S:1:pos:R:3 unique_starting_index=18 config_type=initial n_minim_iter=15 stress="0.007646873110915696 -0.0019039846450912988 0.002118861550231115 -0.0019039846450912988 0.005893850499867116 -0.001013416749539593 0.002118861550231115 -0.001013416749539593 0.0030975271030953978" pbc="T T T"
Si      -0.06415977       9.48963470      -1.12867093
Si      -1.49888495      -1.32468958       5.68462381
Si      -4.15238848      -3.72868638       9.62570157
Si      -0.11021101      -2.87536955       8.70618212
Si      -5.54513659      -0.47053413       8.92612153
Si       4.14217192       2.15123921       0.02186816
Si       2.20761732       0.78282492       0.26600197
Si      -1.61067556       0.25845216       7.09650084
Si      -2.06791306      -3.51863202       9.24870741
Si      -2.70100029       0.90661758       5.39022610
Si       1.11902303      -0.31029846       2.51343092
Si      -2.88343225       3.46108584       5.04004342
Si      -3.23247154      -2.90909842       6.14938778
Si      -0.58419134       6.92024728      -1.20729437
Si       1.04973602       1.42910533       3.78210315
Si       1.15702183       7.93620517      -1.90048589
Si      -0.88540882      -1.34874953       3.24905871
Si       2.35825362      -5.06846696       6.24668670
Si       0.23160855       3.19477312       2.90275053
Si      -2.77017556       2.40929453       6.88450851
Si      -1.48854774       4.30960117       3.46567282
Si      -1.86140558      -2.16761123       7.60204584
22
Lattice="5.513097846703988 -0.6211968441235488 -1.4161589315295382 -2.344129793679436 10.727164183181852 -2.121394439829524 -4.766890856923917 -5.349290431576541 10.794567631146252" Properties=species:S:1:pos:R:3 unique_starting_index=18 config_type=initial n_minim_iter=16 stress="0.005520339611089677 7.954402904437596e-05 0.0012804498099477425 7.954402904437596e-05 0.003809108527563631 -0.0010537203105903117 0.0012804498099477425 -0.0010537203105903117 0.0013063280168049696" pbc="T T T"
Si      -0.05642748       9.47939345      -1.14943147
Si      -1.50849867      -1.33601757       5.70644246
Si      -4.15411309      -3.73996789       9.64291781
Si      -0.11768007      -2.88707663       8.72442988
Si      -5.55945646      -0.48219562       8.94738506
Si       4.14263802       2.15020959       0.01294349
Si       2.20203789       0.78161186       0.26219308
Si      -1.60696129       0.26927284       7.09797694
Si      -2.07201798      -3.53980700       9.26595907
Si      -2.69517758       0.89684592       5.38398884
Si       1.11631880      -0.31781431       2.51511936
Si      -2.88326376       3.44240565       5.04594255
Si      -3.24274466      -2.92333578       6.16123261
Si      -0.56267266       6.91229851      -1.20073473
Si       1.04520720       1.42368944       3.78921407
Si       1.16896491       7.92997584      -1.91702671
Si      -0.88456656      -1.35390030       3.25802657
Si       2.35270541      -5.06584323       6.25496436
Si       0.23308389       3.19151438       2.89806128
Si      -2.77066169       2.39071708       6.88590425
Si      -1.48730556       4.29787845       3.46621210
Si      -1.86897699      -2.19494253       7.61937348
22
Lattice="5.52049149843644 -0.6194105019480909 -1.427049130724531 -2.3413820854866305 10.694068911512607 -2.112538755669103 -4.788702253808689 -5.3267172862116325 10.813163066579198" Properties=species:S:1:pos:R:3 unique_starting_index=18 config_type=initial n_minim_iter=17 stress="0.0012783623540577292 0.001795068033211634 -0.00014999563708999067 0.001795068033211634 -0.0028964112167430963 -0.0001439785247898485 -0.00014999563708999067 -0.0001439785247898485 -0.0005732882506497542" pbc="T T T"
Si      -0.05149764       9.44811264      -1.14116384
Si      -1.52139080      -1.32813956       5.71609234
Si      -4.16996571      -3.72270686       9.66202108
Si      -0.13230390      -2.87402605       8.73407752
Si      -5.57540796      -0.47451027       8.96885242
Si       4.14718462       2.14484273       0.00805077
Si       2.20273617       0.78359599       0.26016646
Si      -1.62104116       0.26757685       7.11442259
Si      -2.09034021      -3.52238902       9.28047733
Si      -2.70406113       0.89911178       5.39394944
Si       1.11251427      -0.31361548       2.51480567
Si      -2.89354329       3.43421829       5.05979774
Si      -3.25503873      -2.90857862       6.17304695
Si      -0.55746041       6.89311231      -1.19615666
Si       1.03907531       1.42227266       3.79694467
Si       1.17681544       7.90395900      -1.91708010
Si      -0.89286593      -1.34703118       3.26275221
Si       2.34505170      -5.04682040       6.25821209
Si       0.22632745       3.18828800       2.90003925
Si      -2.78416622       2.38684658       6.90259822
Si      -1.49475106       4.28710501       3.47722961
Si      -1.87942126      -2.18316966       7.62802477
22
Lattice="5.5174943856444525 -0.6181479446920874 -1.4331396196603954 -2.335032805527732 10.68495266298118 -2.1067364685337586 -4.796043705718816 -5.319338470291189 10.82149215402588" Properties=species:S:1:pos:R:3 unique_starting_index=18 config_type=initial n_minim_iter=18 stress="-0.002027397647494461 0.001260866782281493 -0.0005354974818320455 0.001260866782281493 -0.0034478530826776745 -0.00035728817025868306 -0.0005354974818320455 -0.00035728817025868306 -0.0006152078137641682" pbc="T T T"
Si      -0.04591629       9.43621294      -1.13554151
Si      -1.52918240      -1.32438208       5.72085818
Si      -4.17510307      -3.71661678       9.67141787
Si      -0.14108319      -2.86913479       8.73611270
Si      -5.57694140      -0.47274982       8.98290555
Si       4.14467033       2.14441006       0.00573451
Si       2.19908508       0.78768710       0.26025197
Si      -1.62825564       0.27035842       7.11955754
Si      -2.09524747      -3.51439772       9.28546977
Si      -2.70441695       0.90218120       5.39766403
Si       1.10797407      -0.30971215       2.51449301
Si      -2.89519421       3.43245911       5.06666700
Si      -3.25945918      -2.90179724       6.17679748
Si      -0.54957950       6.88855359      -1.19205370
Si       1.03245898       1.42380774       3.80017349
Si       1.18244795       7.89599635      -1.91676231
Si      -0.89792948      -1.34489948       3.26439133
Si       2.33686767      -5.04164331       6.25900147
Si       0.22155450       3.18958341       2.90001161
Si      -2.78858412       2.38564021       6.91117331
Si      -1.49725424       4.28369111       3.48248138
Si      -1.88216942      -2.18114503       7.63235068
22
Lattice="5.509625126683864 -0.6160183508870879 -1.4323036114541112 -2.3271743264827456 10.70489625533305 -2.1124676455235476 -4.7910662266534105 -5.337072556138465 10.823285565157443" Properties=species:S:1:pos:R:3 unique_starting_index=18 config_type=initial n_minim_iter=19 stress="-0.0017435526850072365 1.3397222324070645e-05 -0.0007697969581797042 1.3397222324070645e-05 0.0005193789987129913 1.1408475938136507e-05 -0.0007697969581797042 1.1408475938136507e-05 0.00018938381124054482" pbc="T T T"
Si      -0.04038319       9.45008174      -1.13978579
Si      -1.53297308      -1.32952814       5.72396600
Si      -4.16905519      -3.72980881       9.67245189
Si      -0.13875368      -2.88074785       8.73559498
Si      -5.57372248      -0.47710024       8.98956714
Si       4.14049824       2.15003765       0.00603058
Si       2.19351706       0.79488403       0.25996848
Si      -1.62093367       0.27550890       7.11369041
Si      -2.09024730      -3.53027063       9.28827599
Si      -2.69817966       0.90489901       5.39071430
Si       1.10472384      -0.30856763       2.51520512
Si      -2.89066389       3.43284791       5.06537841
Si      -3.25924301      -2.90980374       6.17389528
Si      -0.53738718       6.90013663      -1.18955425
Si       1.02901424       1.42759561       3.79887772
Si       1.19029194       7.91006092      -1.92281344
Si      -0.89905183      -1.35087269       3.26478713
Si       2.33320339      -5.05534710       6.26154705
Si       0.22372094       3.19274930       2.89563425
Si      -2.78462678       2.38245650       6.90837516
Si      -1.49807051       4.28835266       3.48015672
Si      -1.87941641      -2.19755171       7.63325532
22
Lattice="5.508900304855838 -0.6153028513873355 -1.4299264302553718 -2.3274514813698888 10.707164571542174 -2.117620439447328 -4.786953019138331 -5.342290318775424 10.823767980919419" Properties=species:S:1:pos:R:3 unique_starting_index=18 config_type=initial n_minim_iter=20 stress="-0.0003495425800112242 -0.0006936717053793556 -0.00020455770176389503 -0.0006936717053793556 0.002255077349764718 0.00035165018578495205 -0.00020455770176389503 0.00035165018578495205 0.0011461333011932346" pbc="T T T"
Si      -0.03949021       9.45085846      -1.14442383
Si      -1.53418807      -1.33160630       5.72690713
Si      -4.16450497      -3.73500848       9.67140462
Si      -0.13360158      -2.88481688       8.73762404
Si      -5.57470507      -0.47904251       8.99288764
Si       4.14142727       2.15050440       0.00780189
Si       2.19182907       0.79497834       0.26217437
Si      -1.61507599       0.28192879       7.10807383
Si      -2.08541681      -3.53850939       9.28801732
Si      -2.69617088       0.90534909       5.38385434
Si       1.10478917      -0.30860460       2.51634372
Si      -2.88888966       3.43023473       5.06430638
Si      -3.25872581      -2.91252578       6.17303235
Si      -0.53255157       6.89938215      -1.18732762
Si       1.02966180       1.42682104       3.79833222
Si       1.19298421       7.91234568      -1.92635537
Si      -0.89820328      -1.35345701       3.26584846
Si       2.33613930      -5.05888167       6.26368718
Si       0.22487770       3.19150097       2.89415417
Si      -2.78252563       2.38021317       6.90633804
Si      -1.49756490       4.28686343       3.47813340
Si      -1.87769349      -2.20529697       7.63186387
22
Lattice="5.511739382183012 -0.617172283524886 -1.4287939028448067 -2.3338233418626735 10.691724802613168 -2.115478000254119 -4.7837246399990665 -5.328767056424824 10.824647885047401" Properties=species:S:1:pos:R:3 unique_starting_index=18 config_type=initial n_minim_iter=21 stress="0.0010966352453488303 -0.0014893355751336049 0.0003805107603608016 -0.0014893355751336049 0.001264588265071091 9.613249034934412e-05 0.0003805107603608016 9.613249034934412e-05 0.0014846919846063108" pbc="T T T"
Si      -0.04138624       9.43549342      -1.14115743
Si      -1.53760506      -1.32371210       5.72668407
Si      -4.15912324      -3.72772023       9.67128757
Si      -0.12803080      -2.87855384       8.74327237
Si      -5.58163836      -0.47013984       9.00178318
Si       4.14402584       2.14596111       0.01098074
Si       2.19117133       0.79373973       0.26621708
Si      -1.61016416       0.29487904       7.10301797
Si      -2.07945969      -3.53538656       9.29030264
Si      -2.69576893       0.91232798       5.37941484
Si       1.10476047      -0.30546532       2.51690973
Si      -2.88937901       3.42832599       5.06694037
Si      -3.25967429      -2.90358408       6.17326770
Si      -0.52787827       6.88616351      -1.17937243
Si       1.02746248       1.42508478       3.80046255
Si       1.19420498       7.89944260      -1.92529726
Si      -0.89888524      -1.35133513       3.26850624
Si       2.34137518      -5.05216327       6.26370243
Si       0.22233072       3.18775490       2.89493078
Si      -2.78389210       2.37870794       6.90864117
Si      -1.49932452       4.28117024       3.48114124
Si      -1.87514817      -2.20398845       7.63215040
