16
Lattice="9.09741704719559 1.2404229471180637 -0.42982189042860075 2.363667993150821 6.751667158774735 -0.46866667880230445 1.004451510303346 0.938339511330542 6.55218284873511" Properties=species:S:1:pos:R:3 unique_starting_index=30 config_type=initial n_minim_iter=1 energy=-2606.8203311629672 free_energy=-2606.8203311629672 pbc="T T T"
Si       6.56214915       6.49310749       2.16926389
Si       5.90338740       2.43732213       3.48443039
Si       4.62369735       3.51019306       2.11615249
Si       7.84183920       5.42023656       3.53754178
Si       6.96679491       3.85206182       4.69977686
Si       5.49874164       5.07836780       0.95391741
Si       6.55495552       4.69143553      -0.84488975
Si       5.91058103       4.23899409       6.49858403
Si       2.75095062       3.85455927       3.09712484
Si       9.71458593       5.07587034       2.55656944
Si      10.83950081       6.31919028       1.23900586
Si       1.62603574       2.61123934       4.41468842
Si       3.69792189       2.01332621       3.61572473
Si       8.76761466       6.91710341       2.03796955
Si       7.10073038       6.54872233       0.11029055
Si       5.36480617       2.38170728       5.54340373
16
Lattice="9.096128674820035 1.240303298396037 -0.4295235075327477 2.3632306760273996 6.751649995876544 -0.46868247718594225 1.0045082754322703 0.9382046312512164 6.551718533424203" Properties=species:S:1:pos:R:3 unique_starting_index=30 config_type=initial n_minim_iter=2 stress="-0.00020258591133500716 4.955613573238623e-05 0.0003128560041982129 4.955613573238623e-05 -0.000533934103704417 2.232291202264703e-05 0.0003128560041982129 2.232291202264703e-05 -0.000776043262398759" pbc="T T T"
Si       6.56121887       6.49298929       2.16918942
Si       5.90264876       2.43716864       3.48432313
Si       4.62306425       3.51007095       2.11612309
Si       7.84080338       5.42008698       3.53738946
Si       6.96590790       3.85185860       4.69957586
Si       5.49795972       5.07829933       0.95393669
Si       6.55393885       4.69133837      -0.84471361
Si       5.90992878       4.23881955       6.49822615
Si       2.75059741       3.85440047       3.09689609
Si       9.71327022       5.07575746       2.55661646
Si      10.83794718       6.31900650       1.23913483
Si       1.62592045       2.61115143       4.41437772
Si       3.69747296       2.01323093       3.61556090
Si       8.76639466       6.91692699       2.03795165
Si       7.09962383       6.54860942       0.11041112
Si       5.36424380       2.38154851       5.54310142
16
Lattice="9.092784872632658 1.2400159031572826 -0.4302270329584903 2.361903371141275 6.7534633932965775 -0.4694068471089622 1.0036885158053008 0.937910254166845 6.552684378596487" Properties=species:S:1:pos:R:3 unique_starting_index=30 config_type=initial n_minim_iter=3 stress="-0.0008234803737151903 0.0001762788115889827 -3.5702994821403286e-05 0.0001762788115889827 0.0004823716163335097 -0.00014819950957105658 -3.5702994821403286e-05 -0.00014819950957105658 0.0006218616277421269" pbc="T T T"
Si       6.55822513       6.49427624       2.16869565
Si       5.90015163       2.43711331       3.48435485
Si       4.62096373       3.51044345       2.11619341
Si       7.83741303       5.42094610       3.53685709
Si       6.96275073       3.85194482       4.69954820
Si       5.49562603       5.07944473       0.95350230
Si       6.55121312       4.69211003      -0.84570077
Si       5.90716364       4.23927952       6.49875127
Si       2.74902487       3.85468643       3.09684736
Si       9.70935189       5.07670312       2.55620314
Si      10.83347609       6.31986202       1.23815297
Si       1.62490067       2.61152753       4.41489753
Si       3.69562168       2.01339165       3.61592495
Si       8.76275508       6.91799790       2.03712555
Si       7.09635651       6.54986288       0.10962541
Si       5.36202025       2.38152667       5.54342509
16
Lattice="9.09478609386255 1.237179516109149 -0.43116022627616457 2.3603876501392214 6.753295605329486 -0.46944060999188386 1.002883442255447 0.9377978418724163 6.551061122449524" Properties=species:S:1:pos:R:3 unique_starting_index=30 config_type=initial n_minim_iter=4 stress="-0.00016690059444628003 -0.0007757817707062908 -0.0005646994569326432 -0.0007757817707062908 -0.0004518977154539819 -0.0002101027464523398 -0.0005646994569326432 -0.0002101027464523398 -3.401620984416433e-05" pbc="T T T"
Si       6.55750406       6.49299031       2.16761457
Si       5.90055313       2.43528265       3.48284571
Si       4.62084956       3.50901563       2.11570748
Si       7.83720763       5.41925733       3.53475280
Si       6.96260503       3.84994220       4.69748716
Si       5.49545215       5.07833077       0.95297313
Si       6.55125880       4.68994035      -0.84644671
Si       5.90679839       4.23833261       6.49690700
Si       2.74779168       3.85318226       3.09558209
Si       9.71026550       5.07509070       2.55487820
Si      10.83408434       6.31676131       1.23651801
Si       1.62397284       2.61151165       4.41394228
Si       3.69504909       2.01276696       3.61505239
Si       8.76300809       6.91550600       2.03540789
Si       7.09545657       6.54786186       0.10921160
Si       5.36260062       2.38041110       5.54124869
16
Lattice="9.097149397804431 1.2384894769469237 -0.4295782505363837 2.3616820636811653 6.755222292055814 -0.4683316387570289 1.004253764957558 0.9388160599556942 6.550505105283533" Properties=species:S:1:pos:R:3 unique_starting_index=30 config_type=initial n_minim_iter=5 stress="0.0003624298695908981 3.996801908782426e-05 0.00018046097457910016 3.996801908782426e-05 0.000918489820911541 0.0003175472640063855 0.00018046097457910016 0.0003175472640063855 -0.0004931057460636231" pbc="T T T"
Si       6.56017678       6.49581195       2.16919734
Si       5.90290845       2.43671588       3.48339787
Si       4.62281133       3.51047544       2.11683200
Si       7.84027390       5.42205239       3.53576321
Si       6.96538431       3.85212158       4.69829878
Si       5.49770092       5.08040625       0.95429643
Si       6.55308491       4.69152385      -0.84492243
Si       5.91000032       4.24100398       6.49751764
Si       2.74918844       3.85407413       3.09571293
Si       9.71389678       5.07845370       2.55688229
Si      10.83777643       6.31960380       1.23848675
Si       1.62530879       2.61292402       4.41410847
Si       3.69642967       2.01427497       3.61566885
Si       8.76665556       6.91825286       2.03692637
Si       7.09757135       6.55012088       0.11109180
Si       5.36551387       2.38240694       5.54150341
16
Lattice="9.098293197957435 1.2393228860130467 -0.42894380960987455 2.362758914549286 6.753673726372206 -0.4686979255364933 1.0050578971997814 0.938198641950412 6.551579460761813" Properties=species:S:1:pos:R:3 unique_starting_index=30 config_type=initial n_minim_iter=6 stress="1.1866960199445335e-05 0.0005865427568593567 -0.00014470741236761496 0.0005865427568593567 -0.0007787720513686211 7.404732282359294e-05 -0.00014470741236761496 7.404732282359294e-05 0.00024780057020392006" pbc="T T T"
Si       6.56178906       6.49503699       2.17016061
Si       5.90432095       2.43615827       3.48377712
Si       4.62413824       3.50976689       2.11770724
Si       7.84197177       5.42142837       3.53623048
Si       6.96688098       3.85164188       4.69927976
Si       5.49922903       5.07955337       0.95465797
Si       6.55393053       4.69070978      -0.84490074
Si       5.91217948       4.24048547       6.49883847
Si       2.74993683       3.85214380       3.09552505
Si       9.71617318       5.07905145       2.55841268
Si      10.84009758       6.31896860       1.23880209
Si       1.62601243       2.61222665       4.41513563
Si       3.69694802       2.01415689       3.61692599
Si       8.76916199       6.91703836       2.03701174
Si       7.09855501       6.54881486       0.11121223
Si       5.36755500       2.38238039       5.54272549
16
Lattice="9.099205085918982 1.2359294345335423 -0.42628105409379397 2.360098476105088 6.755240825445483 -0.4692917833757588 1.0069128013324082 0.9367858768879211 6.551448735950868" Properties=species:S:1:pos:R:3 unique_starting_index=30 config_type=initial n_minim_iter=7 stress="0.0005975876858323412 -0.0005482407417877028 0.0008405307471643907 -0.0005482407417877028 0.0002537713853295777 -0.0011788877808925876 0.0008405307471643907 -0.0011788877808925876 0.00038963160952286966" pbc="T T T"
Si       6.56053881       6.49487729       2.17185369
Si       5.90567756       2.43307884       3.48402221
Si       4.62458505       3.50855995       2.11884447
Si       7.84163132       5.41939619       3.53703142
Si       6.96756975       3.84924284       4.70014582
Si       5.49864661       5.07871330       0.95573008
Si       6.55203072       4.68924497      -0.84379457
Si       5.91418565       4.23871117       6.49967047
Si       2.74900251       3.85038844       3.09398030
Si       9.71721385       5.07756770       2.56189559
Si      10.84019593       6.31610846       1.24014828
Si       1.62602044       2.61184768       4.41572762
Si       3.69727551       2.01265551       3.61864115
Si       8.76894085       6.91530062       2.03723475
Si       7.09577574       6.54742778       0.11200231
Si       5.37044062       2.38052836       5.54387359
16
Lattice="9.097562589169527 1.2335841911008896 -0.4260815663946581 2.3578500109036407 6.7567888119989785 -0.4663253321221593 1.006150347826545 0.9396831840713656 6.549589574777023" Properties=species:S:1:pos:R:3 unique_starting_index=30 config_type=initial n_minim_iter=8 stress="-0.0004194492012810645 -0.0005631815529525112 0.00025622754959559845 -0.0005631815529525112 5.425365762999929e-05 0.0008164691670384057 0.00025622754959559845 0.0008164691670384057 0.00035205811650715606" pbc="T T T"
Si       6.55728345       6.49728506       2.17499682
Si       5.90427950       2.43277113       3.48218586
Si       4.62362235       3.50936120       2.11997720
Si       7.83794060       5.42069499       3.53720548
Si       6.96475602       3.85073046       4.69896190
Si       5.49680693       5.07932572       0.95822078
Si       6.54887421       4.68810118      -0.84203482
Si       5.91268874       4.24195501       6.49921750
Si       2.74626386       3.85050373       3.09209163
Si       9.71529908       5.07955245       2.56509105
Si      10.83767459       6.31543181       1.24076869
Si       1.62388835       2.61462438       4.41641399
Si       3.69522013       2.01396035       3.61971453
Si       8.76634282       6.91609583       2.03746815
Si       7.09111180       6.54678892       0.11429146
Si       5.37045115       2.38326726       5.54289121
16
Lattice="9.099370457629336 1.2356646785995251 -0.42796105307318894 2.3595577388931988 6.758930942296043 -0.46866991120151297 1.0052471600377428 0.9379899268438113 6.545470634828341" Properties=species:S:1:pos:R:3 unique_starting_index=30 config_type=initial n_minim_iter=9 stress="-0.00011313851001295168 0.0001674486272967028 -0.0005732497171776818 0.0001674486272967028 0.0004220388329868795 -0.00028830977099780655 -0.0005732497171776818 -0.00028830977099780655 -0.0006540238959278518" pbc="T T T"
Si       6.55885354       6.50002134       2.17124235
Si       5.90532182       2.43256421       3.47759732
Si       4.62520278       3.51026654       2.11714954
Si       7.83897258       5.42231901       3.53169013
Si       6.96529967       3.85116337       4.69294605
Si       5.49887569       5.08142218       0.95589363
Si       6.55040446       4.69039200      -0.84455593
Si       5.91377090       4.24219355       6.49339560
Si       2.74634292       3.84961425       3.08671194
Si       9.71783244       5.08297130       2.56212773
Si      10.84115578       6.31831058       1.23500968
Si       1.62301957       2.61427497       4.41382999
Si       3.69506466       2.01392536       3.61762515
Si       8.76911070       6.91866019       2.03121452
Si       7.09211183       6.54884067       0.11086956
Si       5.37206352       2.38374487       5.53797011
16
Lattice="9.101053684326574 1.2349765172143699 -0.42263405001203136 2.3595398023787024 6.756890798948234 -0.4675754583107209 1.0093333826296471 0.9374188290323747 6.546673876390793" Properties=species:S:1:pos:R:3 unique_starting_index=30 config_type=initial n_minim_iter=10 stress="-0.00012795784410045343 -6.356689576403267e-05 7.764963078832789e-05 -6.356689576403267e-05 -4.3514250010761826e-05 -4.754269382856025e-06 7.764963078832789e-05 -4.754269382856025e-06 -0.00012795938529316293" pbc="T T T"
Si       6.56095958       6.49875214       2.17574763
Si       5.90896729       2.43053400       3.48071673
Si       4.62797174       3.50900295       2.12012537
Si       7.84195513       5.42028319       3.53633900
Si       6.96905343       3.84905065       4.69593117
Si       5.50087344       5.08023550       0.96053319
Si       6.55072123       4.68877358      -0.84141721
Si       5.91920564       4.24051257       6.49788158
Si       2.74847571       3.84653197       3.08634963
Si       9.72145115       5.08275417       2.57011474
Si      10.84477937       6.31586617       1.24007426
Si       1.62514750       2.61341997       4.41639011
Si       3.69765746       2.01300641       3.62164266
Si       8.77226941       6.91627973       2.03482171
Si       7.09198741       6.54601044       0.11503195
Si       5.37793946       2.38327571       5.54143242
16
Lattice="9.108740888581474 1.2373668147545271 -0.40879156977734943 2.3636473819206634 6.749275797732116 -0.4673391765354565 1.0211061457239297 0.933292714074652 6.549746804719043" Properties=species:S:1:pos:R:3 unique_starting_index=30 config_type=initial n_minim_iter=11 stress="0.000400073151989783 1.9532076444078066e-05 -0.00028295899343028707 1.9532076444078066e-05 1.0825637815707875e-05 6.894207873267684e-05 -0.00028295899343028707 6.894207873267684e-05 0.000393746215080858" pbc="T T T"
Si       6.57341462       6.49572406       2.18654111
Si       5.92007980       2.42421127       3.48707494
Si       4.64192901       3.50202969       2.12622178
Si       7.85156541       5.41790564       3.54739428
Si       6.98146431       3.84135605       4.70357203
Si       5.51203010       5.07857928       0.97004403
Si       6.55393784       4.68524382      -0.83592405
Si       5.93955658       4.23469150       6.50954010
Si       2.75510727       3.83400706       3.08325123
Si       9.73838714       5.08592826       2.59036483
Si      10.85997864       6.30959472       1.25064903
Si       1.63351577       2.61034060       4.42296703
Si       3.71111886       2.00850136       3.63480621
Si       8.78237556       6.91143397       2.03880985
Si       7.09758490       6.54168265       0.12366235
Si       5.39590951       2.37825268       5.54995371
16
Lattice="9.110007573251726 1.2388096334669412 -0.40499576192796677 2.3648397093462488 6.749529830108796 -0.46686055417981037 1.024203941069021 0.9329216731388262 6.550269542791628" Properties=species:S:1:pos:R:3 unique_starting_index=30 config_type=initial n_minim_iter=12 stress="0.00020130492540555248 0.0001093735060063617 -0.00021184003636128977 0.0001093735060063617 0.00018916531859669935 8.675584299185326e-05 -0.00021184003636128977 8.675584299185326e-05 0.00030261823851629053" pbc="T T T"
Si       6.57646206       6.49756099       2.18932744
Si       5.92258917       2.42370015       3.48908579
Si       4.64519273       3.50177393       2.12798434
Si       7.85385850       5.41948721       3.55042889
Si       6.98480420       3.84188365       4.70575451
Si       5.51424703       5.07937749       0.97265872
Si       6.55412260       4.68544734      -0.83485022
Si       5.94492862       4.23581380       6.51326345
Si       2.75756065       3.83197332       3.08171477
Si       9.74149057       5.08928782       2.59669846
Si      10.86339320       6.31010332       1.25405117
Si       1.63565802       2.61115781       4.42436205
Si       3.71493510       2.00849648       3.63850341
Si       8.78411613       6.91276465       2.03990982
Si       7.09894537       6.54326130       0.12643330
Si       5.40010585       2.37799983       5.55197992
16
Lattice="9.114752134137742 1.2366625712512556 -0.402132322944496 2.3646105921830296 6.74773857868541 -0.4661221147680468 1.0266800159779828 0.9325844885444782 6.55165348986038" Properties=species:S:1:pos:R:3 unique_starting_index=30 config_type=initial n_minim_iter=13 stress="-8.197358685357428e-05 -8.650779513699026e-06 -1.8161793037695718e-05 -8.650779513699026e-06 7.129901205400871e-05 5.885879968137963e-05 -1.8161793037695718e-05 5.885879968137963e-05 -5.260756404418078e-05" pbc="T T T"
Si       6.57898126       6.49597563       2.19175345
Si       5.92706149       2.42101001       3.49164560
Si       4.64954032       3.49906287       2.13017384
Si       7.85650242       5.41792277       3.55322521
Si       6.98834764       3.83895767       4.70840613
Si       5.51769510       5.07802797       0.97499292
Si       6.55466241       4.68344942      -0.83366648
Si       5.95138033       4.23353622       6.51706553
Si       2.75995925       3.82677271       3.07860856
Si       9.74608349       5.09021293       2.60479049
Si      10.86899341       6.30404869       1.25767704
Si       1.63704933       2.61293695       4.42572201
Si       3.72019835       2.00773775       3.64373914
Si       8.78584439       6.90924788       2.03965991
Si       7.10082280       6.54071958       0.12837615
Si       5.40521994       2.37626606       5.55502290
16
Lattice="9.120361461898721 1.2395697290756698 -0.39454710406916754 2.3675756338818212 6.748719494187414 -0.4687763308355305 1.0338695789836405 0.9284212883517518 6.556726251934928" Properties=species:S:1:pos:R:3 unique_starting_index=30 config_type=initial n_minim_iter=14 stress="-7.3567472041983e-05 -0.0001487706460531333 0.00026613195041177756 -0.0001487706460531333 0.00016105469053179894 -0.00019108313010891034 0.00026613195041177756 -0.00019108313010891034 -0.00033788319676972023" pbc="T T T"
Si       6.58571201       6.49821566       2.19427319
Si       5.93609467       2.41849485       3.49912963
Si       4.66083538       3.49733829       2.13366434
Si       7.86097130       5.41937223       3.55973848
Si       6.99732835       3.83739996       4.71464580
Si       5.52447832       5.07931055       0.97875702
Si       6.55560670       4.68709922      -0.83351869
Si       5.96619998       4.22961129       6.52692151
Si       2.76492246       3.81669763       3.07192685
Si       9.75688422       5.10001288       2.62147597
Si      10.87913799       6.30118091       1.26428715
Si       1.64266869       2.61552960       4.42911567
Si       3.73076996       2.00746631       3.65582827
Si       8.79103672       6.90924421       2.03757454
Si       7.10527511       6.54195982       0.13032356
Si       5.41653157       2.37475069       5.56307926
16
Lattice="9.127799774838097 1.2406584018615423 -0.38327465664484045 2.3696582127075105 6.748845071957293 -0.4700493705998849 1.0437548478940253 0.9244884768349259 6.5630078264114475" Properties=species:S:1:pos:R:3 unique_starting_index=30 config_type=initial n_minim_iter=15 stress="0.00018752411283578 -0.00045696409934285173 -4.387179734958187e-05 -0.00045696409934285173 0.0004004883024845048 -0.00018726471111125566 -4.387179734958187e-05 -0.00018726471111125566 8.593234663710624e-06" pbc="T T T"
Si       6.59392224       6.49808600       2.20041917
Si       5.94729060       2.41590596       3.50926463
Si       4.67595814       3.49355012       2.14156343
Si       7.86525469       5.42044183       3.56812037
Si       7.00991197       3.83516889       4.72409362
Si       5.53130087       5.07882306       0.98559018
Si       6.55591726       4.69015609      -0.83110652
Si       5.98529557       4.22383586       6.54079032
Si       2.77135595       3.80413415       3.06429867
Si       9.76985688       5.10985780       2.64538513
Si      10.89099683       6.29608572       1.27443885
Si       1.65021601       2.61790623       4.43524495
Si       3.74430023       2.00679898       3.67149868
Si       8.79691260       6.90719297       2.03818512
Si       7.10982444       6.54064498       0.13557537
Si       5.43138839       2.37334697       5.57410843
16
Lattice="9.138954825864237 1.24742989374615 -0.36302917051393824 2.3766127839720474 6.748025010676771 -0.4708541210327465 1.061435649679644 0.9190713062248983 6.5721261419249455" Properties=species:S:1:pos:R:3 unique_starting_index=30 config_type=initial n_minim_iter=16 stress="0.00033153457172010607 -0.0005393169517607841 -0.00016981088361626536 -0.0005393169517607841 0.000712442257726461 -5.799279223398529e-05 -0.00016981088361626536 -5.799279223398529e-05 0.0003337265722623935" pbc="T T T"
Si       6.60918594       6.49750225       2.21127640
Si       5.96781732       2.41702396       3.52696645
Si       4.69906231       3.49008155       2.15526965
Si       7.87794095       5.42444466       3.58297320
Si       7.03376542       3.83477143       4.74082597
Si       5.54323784       5.07975478       0.99741688
Si       6.55985491       4.69683723      -0.82527904
Si       6.01714834       4.21768898       6.56352189
Si       2.78265893       3.78969505       3.05642807
Si       9.79434432       5.12483116       2.68181478
Si      10.91181284       6.29479843       1.29460164
Si       1.66519042       2.61972778       4.44364121
Si       3.76485203       2.00691842       3.69265611
Si       8.81215123       6.90760779       2.04558674
Si       7.12214699       6.54133019       0.14578314
Si       5.45485627       2.37319602       5.59245971
16
Lattice="9.14731416388934 1.2545153842285144 -0.3460109461600619 2.3831243208343236 6.74836486395359 -0.4707656429492836 1.0761126099436416 0.9154315476693258 6.5778399629715105" Properties=species:S:1:pos:R:3 unique_starting_index=30 config_type=initial n_minim_iter=17 stress="0.00013070838129839276 9.603369954497412e-05 -0.0002484112715813737 9.603369954497412e-05 0.0002281142043313259 0.0001557306182253846 -0.0002484112715813737 0.0001557306182253846 0.00016398421319019306" pbc="T T T"
Si       6.62111298       6.49613037       2.21914806
Si       5.98543812       2.42218142       3.54191532
Si       4.71759151       3.48900165       2.16718173
Si       7.88895958       5.42931014       3.59388165
Si       7.05542535       3.83663731       4.75494858
Si       5.55112574       5.08167448       1.00611479
Si       6.56354019       4.70510431      -0.82038792
Si       6.04301091       4.21320749       6.58145130
Si       2.79204703       3.78050069       3.05098348
Si       9.81450407       5.13781110       2.71007990
Si      10.92773509       6.29844086       1.31164746
Si       1.67881600       2.61987093       4.44941592
Si       3.78078123       2.00905213       3.70610783
Si       8.82576987       6.90925966       2.05495554
Si       7.13518928       6.54401699       0.15406792
Si       5.47136181       2.37429481       5.60699545
16
Lattice="9.153617913429233 1.2556456307368826 -0.3341994751254154 2.3855353994886284 6.745050834485 -0.46883830161236734 1.0857612994874182 0.91402385157974 6.5807451909288694" Properties=species:S:1:pos:R:3 unique_starting_index=30 config_type=initial n_minim_iter=18 stress="0.00010735814253480216 0.00010238796676104281 -5.02002414938644e-05 0.00010238796676104281 2.6421434569653737e-05 -8.098809065372847e-05 -5.02002414938644e-05 -8.098809065372847e-05 0.0002387944138107309" pbc="T T T"
Si       6.62814478       6.49188046       2.22614852
Si       5.99676983       2.42283986       3.55155889
Si       4.72754138       3.48626706       2.17575728
Si       7.89737323       5.42845325       3.60195014
Si       7.06988536       3.83397897       4.76542548
Si       5.55502925       5.08074134       1.01228193
Si       6.56545595       4.70629850      -0.81588445
Si       6.05945866       4.20842182       6.59359187
Si       2.79676303       3.77429760       3.04840667
Si       9.82815158       5.14042271       2.72930075
Si      10.93816598       6.29696218       1.32399612
Si       1.68674864       2.61775814       4.45371130
Si       3.79062529       2.00913889       3.71326864
Si       8.83428932       6.90558142       2.06443877
Si       7.14336528       6.54171093       0.16144847
Si       5.48154933       2.37300938       5.61625894
16
Lattice="9.155737969083 1.2528650952427447 -0.33157044541898884 2.3842144809816386 6.743491199102254 -0.46641235014293947 1.087296517335137 0.9152176104076033 6.577722991956862" Properties=species:S:1:pos:R:3 unique_starting_index=30 config_type=initial n_minim_iter=19 stress="-0.0005704393094295434 0.0003850987311425319 0.00025615499234472026 0.0003850987311425319 -0.0006344463939266923 2.6331960791535808e-05 0.00025615499234472026 2.6331960791535808e-05 -0.00038864840708466807" pbc="T T T"
Si       6.62770848       6.48860591       2.22714716
Si       5.99954049       2.42296800       3.55259304
Si       4.72813516       3.48578783       2.17790971
Si       7.89911381       5.42578607       3.60183049
Si       7.07498370       3.83088475       4.76763724
Si       5.55226527       5.08068916       1.01210296
Si       6.56443197       4.70593209      -0.81490035
Si       6.06281699       4.20564181       6.59464055
Si       2.79592724       3.77304499       3.04633520
Si       9.83132173       5.13852892       2.73340500
Si      10.93932880       6.29634801       1.32673365
Si       1.68792017       2.61522590       4.45300655
Si       3.79169853       2.00965708       3.70996527
Si       8.83555044       6.90191683       2.06977493
Si       7.14684446       6.53969022       0.16336927
Si       5.48040451       2.37188369       5.61637092
16
Lattice="9.162730347123137 1.2504969672308888 -0.32457595835278547 2.3843157237113344 6.740941876425683 -0.465253628407972 1.0930357862363917 0.9140064792127363 6.577908308302742" Properties=species:S:1:pos:R:3 unique_starting_index=30 config_type=initial n_minim_iter=20 stress="0.0003706604636148899 -0.00014106208583164467 0.00012279354428873702 -0.00014106208583164467 0.0002936459756316769 -0.00023053198123776608 0.00012279354428873702 -0.00023053198123776608 0.00017464243679051231" pbc="T T T"
Si       6.63273237       6.48595488       2.23091475
Si       6.00734949       2.41949044       3.55716397
Si       4.73606420       3.48326552       2.18269963
Si       7.90401766       5.42217981       3.60537910
Si       7.08565938       3.82497620       4.77309203
Si       5.55442247       5.08046912       1.01498669
Si       6.56428248       4.70510793      -0.81327371
Si       6.07579938       4.20033739       6.60135243
Si       2.79794672       3.76495512       3.04038248
Si       9.84213513       5.14049020       2.74769624
Si      10.94817007       6.29178705       1.33316193
Si       1.69191179       2.61365827       4.45491679
Si       3.79928384       2.00807322       3.71469196
Si       8.84079801       6.89737210       2.07338676
Si       7.15231541       6.53620490       0.16719142
Si       5.48776645       2.36924042       5.62088730
16
Lattice="9.174981989060033 1.2451451116100303 -0.3218415150967199 2.3838733633234592 6.737231576596844 -0.4656491448360483 1.0959372355267958 0.9117704515583419 6.574235110928469" Properties=species:S:1:pos:R:3 unique_starting_index=30 config_type=initial n_minim_iter=21 stress="0.0010957852700894648 -0.00038393216141352645 -0.0003578827180155615 -0.00038393216141352645 0.0009835564237331658 5.489799255519558e-05 -0.0003578827180155615 5.489799255519558e-05 0.0005257863470393612" pbc="T T T"
Si       6.63944176       6.48284905       2.22779061
Si       6.01535083       2.41129809       3.55895385
Si       4.74672261       3.48292461       2.18605185
Si       7.90806998       5.41122253       3.60069260
Si       7.10269829       3.81102914       4.77557128
Si       5.55209430       5.08311800       1.01117317
Si       6.56132098       4.70486944      -0.81708918
Si       6.09347161       4.18927770       6.60383363
Si       2.79766626       3.74785343       3.02425616
Si       9.85712632       5.14629371       2.76248829
Si      10.96047970       6.28417434       1.33515078
Si       1.69431289       2.60997280       4.45159368
Si       3.80769188       2.00299969       3.71460109
Si       8.84710071       6.89114745       2.07214336
Si       7.16288754       6.52925350       0.16514026
Si       5.49190505       2.36489364       5.62160419
