14
Lattice="5.9020452774067005 0.49169428974020524 -1.1586825896071408e-14 0.12609136986959937 2.6251981125036266 -5.050293950957069e-14 5.399681855539959e-15 2.7348948742823924e-13 14.229261510932657" Properties=species:S:1:pos:R:3 unique_starting_index=0 config_type=initial n_minim_iter=1 energy=-2278.4211102471663 free_energy=-2278.4211102471663 pbc="T T T"
Si       1.93348286       0.84987560      11.30789676
Si       1.08058546       0.70857060       4.19326600
Si       4.09465378       2.26701681       2.92136475
Si       4.94755119       2.40832180      10.03599551
Si       4.69920416       0.94317552       4.96096430
Si       4.21690944       1.10696497      12.07559505
Si       1.32893248       2.17371689       9.26829721
Si       1.81122721       2.00992743       2.15366646
Si       2.48374299       0.91837172       6.12104776
Si       0.53032534       0.64007449      13.23567851
Si       3.54439366       2.19852069       8.10821375
Si       5.49781131       2.47681792       0.99358300
Si       2.95102264       0.24584714      -0.00000000
Si       0.06304568       1.31259906       7.11463076
14
Lattice="5.87373465558472 0.4925620455819355 -1.1606745093695805e-14 0.1255053221949524 2.629605700442183 -5.058834148718773e-14 5.359530055413236e-15 2.731295292800176e-13 14.210706620208825" Properties=species:S:1:pos:R:3 unique_starting_index=0 config_type=initial n_minim_iter=2 stress="-0.00217956650293519 -1.0548029022900209e-05 -2.979781346323023e-16 -1.0548029022900209e-05 -0.0019959835270009275 -2.5328776250168004e-17 -2.979781346323023e-16 -2.5328776250168004e-17 -0.0018273319947638591" pbc="T T T"
Si       1.92464301       0.85184999      11.29219868
Si       1.07497698       0.70923388       4.18684537
Si       4.07459697       2.27031776       2.91850794
Si       4.92426300       2.41293386      10.02386125
Si       4.67635374       0.94508427       4.95358325
Si       4.19700091       1.10856165      12.05893656
Si       1.32288624       2.17708347       9.25712337
Si       1.80223907       2.01360610       2.15177006
Si       2.47234681       0.92026373       6.11363092
Si       0.52727318       0.64082014      13.21898423
Si       3.52689317       2.20190401       8.09707570
Si       5.47196680       2.48134761       0.99172239
Si       2.93686733       0.24628102      -0.00000000
Si       0.06275266       1.31480285       7.10535331
14
Lattice="5.86726950568661 0.49471071724509147 -1.1632043246413469e-14 0.12542034900323296 2.6404396778209946 -5.0795621961218375e-14 5.398952407882542e-15 2.7350781590195507e-13 14.230209771941983" Properties=species:S:1:pos:R:3 unique_starting_index=0 config_type=initial n_minim_iter=3 stress="-0.0013434969152856828 -0.00014435928017705383 3.7921958902120107e-19 -0.00014435928017705383 0.002896320866929758 1.1313384405799165e-17 3.7921958902120107e-19 1.1313384405799165e-17 0.002205647057485778" pbc="T T T"
Si       1.92321663       0.85641458      11.30584305
Si       1.07312830       0.71116061       4.19073816
Si       4.06947322       2.27873581       2.92436673
Si       4.91956156       2.42398978      10.03947161
Si       4.67050158       0.94954926       4.95876314
Si       4.19311285       1.11273666      12.07386803
Si       1.32218827       2.18560114       9.27144663
Si       1.79957701       2.02241374       2.15634174
Si       2.47053649       0.92478332       6.12315097
Si       0.52580844       0.64279187      13.23825586
Si       3.52215336       2.21036707       8.10705880
Si       5.46688142       2.49235852       0.99195391
Si       2.93363475       0.24735536      -0.00000000
Si       0.06271017       1.32021984       7.11510489
14
Lattice="5.875983376711936 0.49851967717773 -1.1745155036597665e-14 0.12693036534270138 2.6448851912236497 -5.088418487330899e-14 5.2946270203143646e-15 2.72601725457095e-13 14.183567246637425" Properties=species:S:1:pos:R:3 unique_starting_index=0 config_type=initial n_minim_iter=4 stress="-0.0004609777877775139 0.00028296243042248736 -2.636060091955668e-16 0.00028296243042248736 0.0013503404608981905 -1.182118074809856e-17 -2.636060091955668e-16 -1.182118074809856e-17 0.0004492873109030607" pbc="T T T"
Si       1.92843314       0.86272315      11.26179592
Si       1.07302373       0.70897928       4.17001230
Si       4.07448060       2.28068172       2.92177132
Si       4.92989001       2.43442558      10.01355495
Si       4.67485932       0.95513809       4.93615276
Si       4.20258093       1.11508403      12.02793639
Si       1.32805442       2.18826678       9.24741448
Si       1.80033281       2.02832084       2.15563086
Si       2.47773509       0.93025471       6.10746544
Si       0.52372178       0.64144773      13.19924906
Si       3.52517865       2.21315016       8.07610181
Si       5.47919197       2.50195714       0.98431819
Si       2.93799169       0.24925984      -0.00000000
Si       0.06346518       1.32244260       7.09178362
14
Lattice="5.87825850342378 0.4904195935493101 -1.1599813809538243e-14 0.12340294248851451 2.64456295642438 -5.0877268169755533e-14 5.26854214973077e-15 2.724185882567755e-13 14.174155339517155" Properties=species:S:1:pos:R:3 unique_starting_index=0 config_type=initial n_minim_iter=5 stress="-0.0003013311899825741 0.00012847643642799065 -3.401705969108566e-16 0.00012847643642799065 -0.00044078428005263787 6.626371478858322e-17 -3.401705969108566e-16 6.626371478858322e-17 9.819318587951706e-05" pbc="T T T"
Si       1.93002192       0.86385705      11.24970661
Si       1.07080881       0.70363422       4.16262894
Si       4.07163953       2.27112550       2.92444873
Si       4.93085264       2.43134833      10.01152640
Si       4.67351700       0.95002523       4.92696951
Si       4.20557223       1.10788564      12.01404718
Si       1.32814445       2.18495732       9.24718583
Si       1.79608922       2.02709691       2.16010816
Si       2.47965261       0.92951895       6.10634842
Si       0.52117811       0.63797232      13.19342609
Si       3.52200883       2.20546360       8.06780691
Si       5.48048333       2.49701023       0.98072924
Si       2.93912925       0.24520980      -0.00000000
Si       0.06170147       1.32228148       7.08707767
14
Lattice="5.889897875320943 0.47996867078788286 -1.1457205554289986e-14 0.11833419184184579 2.6525920865945207 -5.1033684778018994e-14 5.120601991653981e-15 2.7137724806427077e-13 14.120786826947434" Properties=species:S:1:pos:R:3 unique_starting_index=0 config_type=initial n_minim_iter=6 stress="0.0012083307076788169 6.195364056531182e-05 -3.15039740954704e-16 6.195364056531182e-05 -2.2071196007967994e-05 -5.587378171240743e-17 -3.15039740954704e-16 -5.587378171240743e-17 -0.0016956887633637365" pbc="T T T"
Si       1.93415291       0.86795823      11.20662611
Si       1.06996313       0.69832215       4.14623270
Si       4.07407916       2.26460253       2.91416071
Si       4.93826894       2.43423861       9.97455413
Si       4.67889801       0.94496353       4.90147194
Si       4.21511590       1.10128552      11.96186535
Si       1.32933405       2.18759722       9.21931489
Si       1.79311617       2.03127524       2.15892148
Si       2.48271700       0.93142978       6.08412197
Si       0.52139903       0.63485060      13.14451539
Si       3.52551507       2.20113097       8.03666485
Si       5.48683303       2.49771016       0.97627144
Si       2.94494894       0.23998434      -0.00000000
Si       0.05916710       1.32629604       7.06039341
14
Lattice="5.8802738947219995 0.45624143880330453 -1.0971146535358262e-14 0.10776248632122598 2.650339668986327 -5.098511915610826e-14 5.2028144800598176e-15 2.723698653600188e-13 14.17221781023438" Properties=species:S:1:pos:R:3 unique_starting_index=0 config_type=initial n_minim_iter=7 stress="7.162852445600757e-05 -0.0005793408085087763 -8.11463683092701e-16 -0.0005793408085087763 -0.0003348580391650572 -1.582083147865993e-17 -8.11463683092701e-16 -1.582083147865993e-17 0.0015148974485807278" pbc="T T T"
Si       1.93202076       0.87017927      11.25304520
Si       1.06199743       0.68311129       4.16693629
Si       4.05601562       2.23640184       2.91917261
Si       4.92603895       2.42346982      10.00528152
Si       4.66398262       0.92807949       4.90726605
Si       4.21030947       1.08145250      11.99337496
Si       1.32405376       2.17850162       9.26495176
Si       1.77772692       2.02512860       2.17884285
Si       2.47277315       0.92926298       6.10509332
Si       0.52124504       0.62402757      13.19120223
Si       3.51526323       2.17731813       8.06712449
Si       5.46679134       2.48255353       0.98101559
Si       2.94013695       0.22812072      -0.00000000
Si       0.05388124       1.32516983       7.08610891
14
Lattice="5.883028189104158 0.46403802084342727 -1.1150192774823102e-14 0.11095608815275748 2.654338256402734 -5.1065937440151187e-14 5.126250692096296e-15 2.718545982045958e-13 14.146025933150263" Properties=species:S:1:pos:R:3 unique_starting_index=0 config_type=initial n_minim_iter=8 stress="-0.00023760303733346238 -0.00019159850353932034 -8.810650259865742e-16 -0.00019159850353932034 0.001190072166911374 -6.347349271487197e-17 -8.810650259865742e-16 -6.347349271487197e-17 0.0001521812703172011" pbc="T T T"
Si       1.93575722       0.87887683      11.24309500
Si       1.06123492       0.68031131       4.17008203
Si       4.05822706       2.23949945       2.90293093
Si       4.93274935       2.43806497       9.97594390
Si       4.66344928       0.93555837       4.89552395
Si       4.21657105       1.08766779      11.96853692
Si       1.33053500       2.18281791       9.25050198
Si       1.77741323       2.03070849       2.17748901
Si       2.47136820       0.93820052       6.09117915
Si       0.52562394       0.62098762      13.16419211
Si       3.52261608       2.18017576       8.05484679
Si       5.46836033       2.49738866       0.98183382
Si       2.94151409       0.23201901      -0.00000000
Si       0.05547804       1.32716913       7.07301297
14
Lattice="5.893055427050493 0.4759991119257083 -1.1415237544432994e-14 0.11677136796655223 2.650967334886989 -5.100621319188634e-14 5.043712109423742e-15 2.7143977172719016e-13 14.125075571743489" Properties=species:S:1:pos:R:3 unique_starting_index=0 config_type=initial n_minim_iter=9 stress="0.00019779403296994172 0.0008132838185187252 -6.552598084341032e-16 0.0008132838185187252 -0.0014019329521219996 1.287230186188936e-16 -6.552598084341032e-16 1.287230186188936e-16 -0.0013059741445028432" pbc="T T T"
Si       1.94793771       0.89352876      11.23604384
Si       1.05697569       0.66995446       4.17350605
Si       4.06188909       2.23343768       2.88903173
Si       4.95285111       2.45701199       9.95156952
Si       4.66146798       0.94567539       4.87932045
Si       4.23650084       1.09380695      11.94185823
Si       1.34835882       2.18129106       9.24575513
Si       1.77332595       2.03315950       2.18321734
Si       2.47865161       0.95267244       6.08643553
Si       0.52626179       0.61081079      13.14897332
Si       3.53117519       2.17429401       8.03864004
Si       5.48356501       2.51615566       0.97610225
Si       2.94652771       0.23799956      -0.00000000
Si       0.05838568       1.32548367       7.06253779
14
Lattice="5.887619630923789 0.46198267848131497 -1.1146069960694823e-14 0.11059094164157136 2.6489250789172907 -5.096555599608732e-14 5.045769857166828e-15 2.71796346866466e-13 14.1438582880135" Properties=species:S:1:pos:R:3 unique_starting_index=0 config_type=initial n_minim_iter=10 stress="-0.0004804142131327581 0.00017529542632553266 -6.3536737463756455e-16 0.00017529542632553266 -0.0009038267068905558 1.7673640462797345e-17 -6.3536737463756455e-16 1.7673640462797345e-17 0.0004897667101647115" pbc="T T T"
Si       1.94748429       0.88780638      11.25789603
Si       1.05162099       0.66764750       4.18596688
Si       4.05072628       2.22310138       2.88596226
Si       4.94658958       2.44326025       9.95789141
Si       4.65134380       0.93164187       4.89025041
Si       4.23538112       1.08579469      11.96217955
Si       1.34686678       2.17926589       9.25360788
Si       1.76282945       2.02511307       2.18167874
Si       2.47652277       0.94744179       6.09680343
Si       0.52258252       0.60801209      13.16873258
Si       3.52168781       2.16346597       8.04705485
Si       5.47562805       2.50289566       0.97512571
Si       2.94380982       0.23099134      -0.00000000
Si       0.05529547       1.32446254       7.07192914
14
Lattice="5.889552524961424 0.4509780841768033 -1.096295523094117e-14 0.10527770092423537 2.6544436875325297 -5.1072420320070736e-14 4.971437015154904e-15 2.713416116996883e-13 14.120816044456193" Properties=species:S:1:pos:R:3 unique_starting_index=0 config_type=initial n_minim_iter=11 stress="3.4218291676071245e-05 -7.269275026261397e-05 -4.5551564890512925e-16 -7.269275026261397e-05 -0.00010747100463425 2.2700115393943316e-18 -4.5551564890512925e-16 2.2700115393943316e-18 0.00029543420675513067" pbc="T T T"
Si       1.94941660       0.88901235      11.24176728
Si       1.04799851       0.66369853       4.18135926
Si       4.04541362       2.21640942       2.87904877
Si       4.94683172       2.44172324       9.93945679
Si       4.64738975       0.92398005       4.87902005
Si       4.23957789       1.07970892      11.93942808
Si       1.34744047       2.18144172       9.24179599
Si       1.75525234       2.02571286       2.18138797
Si       2.47627625       0.94765017       6.08824285
Si       0.52113886       0.60506071      13.14865087
Si       3.51855398       2.15777160       8.03257319
Si       5.47369136       2.50036106       0.97216517
Si       2.94477626       0.22548904      -0.00000000
Si       0.05263885       1.32722184       7.06040802
14
Lattice="5.889816517758752 0.44281666826473953 -1.086065581588413e-14 0.10099955493428947 2.66228954822739 -5.12274963249337e-14 4.8292622642276234e-15 2.7065208488408146e-13 14.086276981732993" Properties=species:S:1:pos:R:3 unique_starting_index=0 config_type=initial n_minim_iter=12 stress="8.353735549316925e-05 -5.485780763666723e-05 -4.860568674354436e-16 -5.485780763666723e-05 0.0008727293320233362 -1.3791249268853088e-16 -4.860568674354436e-16 -1.3791249268853088e-16 -0.0003109415384242122" pbc="T T T"
Si       1.95226970       0.88989004      11.21489585
Si       1.04313834       0.66266307       4.17175735
Si       4.03854637       2.21521618       2.87138114
Si       4.94767773       2.44244314       9.91451963
Si       4.64039746       0.91773842       4.86382775
Si       4.24482709       1.07763136      11.90696624
Si       1.35041861       2.18736780       9.22244923
Si       1.74598898       2.02747486       2.17931074
Si       2.47590551       0.94850231       6.07464831
Si       0.51950253       0.60405080      13.11778680
Si       3.51491056       2.15660391       8.01162867
Si       5.47131355       2.50105542       0.96849018
Si       2.94490826       0.22140833      -0.00000000
Si       0.05049978       1.33114477       7.04313849
14
Lattice="5.894296697298957 0.42932670955908986 -1.0644448329467498e-14 0.09531168051265643 2.6596887252884907 -5.1181085398645503e-14 4.72947523046245e-15 2.705215218267862e-13 14.080818852211106" Properties=species:S:1:pos:R:3 unique_starting_index=0 config_type=initial n_minim_iter=13 stress="0.0006209223722329596 -0.0003649121758322909 -5.38171565072937e-16 -0.0003649121758322909 0.00013947874836859074 -5.3624907353689525e-17 -5.38171565072937e-16 -5.3624907353689525e-17 -1.7807315981936154e-05" pbc="T T T"
Si       1.96038551       0.88309395      11.21501500
Si       1.03441868       0.66141376       4.17460557
Si       4.02922287       2.20592148       2.86580386
Si       4.95518970       2.42760167       9.90621328
Si       4.63114896       0.90173845       4.85713808
Si       4.25795193       1.07209598      11.89754750
Si       1.35845942       2.18727698       9.22368078
Si       1.73165645       2.01691946       2.18327135
Si       2.47325220       0.94248271       6.06976771
Si       0.52155199       0.60202500      13.11017714
Si       3.51635618       2.14653272       8.01105114
Si       5.46805639       2.48699043       0.97064171
Si       2.94714835       0.21466335      -0.00000000
Si       0.04765584       1.32984436       7.04040943
14
Lattice="5.893904677053812 0.43138961332748993 -1.0711856848942666e-14 0.09627741724999188 2.659010008355149 -5.117215898875824e-14 4.661608480985489e-15 2.7040456292516866e-13 14.075635205536486" Properties=species:S:1:pos:R:3 unique_starting_index=0 config_type=initial n_minim_iter=14 stress="0.00014857782619744222 -0.0001503133129874732 -3.7493884391155758e-16 -0.0001503133129874732 -7.08947264778714e-05 -2.267831222363774e-16 -3.7493884391155758e-16 -2.267831222363774e-16 0.00016279686378959594" pbc="T T T"
Si       1.96749994       0.88210846      11.21406898
Si       1.02759111       0.66309135       4.17625138
Si       4.02268216       2.20829116       2.86156623
Si       4.96259098       2.42730827       9.89938383
Si       4.62295280       0.89989942       4.85206241
Si       4.26604292       1.07669001      11.88988001
Si       1.36722929       2.19050021       9.22357279
Si       1.72413917       2.01370961       2.18575519
Si       2.47135801       0.94312066       6.06652287
Si       0.52373303       0.60207915      13.10434047
Si       3.51882408       2.14727896       8.00911233
Si       5.46644906       2.48832047       0.97129473
Si       2.94695234       0.21569481      -0.00000000
Si       0.04813871       1.32950500       7.03781760
14
Lattice="5.89567279338007 0.4384764737818614 -1.0908910385260079e-14 0.09944496592603161 2.659279161762899 -5.118557443907456e-14 4.511222397024042e-15 2.6999859758144047e-13 14.0561809178074" Properties=species:S:1:pos:R:3 unique_starting_index=0 config_type=initial n_minim_iter=15 stress="-0.00042781813434352605 0.0002982472925054591 -5.247665773477241e-16 0.0002982472925054591 -0.0002481210951255516 -7.448401660428888e-17 -5.247665773477241e-16 -7.448401660428888e-17 0.00020405351169337302" pbc="T T T"
Si       1.98157679       0.88189116      11.20266311
Si       1.01598208       0.66698666       4.17457265
Si       4.01354096       2.21586448       2.85351781
Si       4.97913567       2.43076897       9.88160827
Si       4.61441854       0.90121791       4.83981768
Si       4.27881313       1.08613638      11.86790814
Si       1.38069922       2.19653773       9.21636324
Si       1.71630462       2.01161925       2.18827278
Si       2.46903229       0.94547074       6.05796305
Si       0.52852659       0.60340708      13.08605351
Si       3.52608547       2.15228490       7.99821786
Si       5.46659117       2.49434856       0.97012740
Si       2.94783640       0.21923824      -0.00000000
Si       0.04972248       1.32963958       7.02809046
14
Lattice="5.901186477168334 0.43206192775481517 -1.0864165250377705e-14 0.09649720076695396 2.6618287485311716 -5.124209420996295e-14 4.31886448499781e-15 2.6945114207456534e-13 14.029664532148896" Properties=species:S:1:pos:R:3 unique_starting_index=0 config_type=initial n_minim_iter=16 stress="-9.06946810956722e-05 0.0001244080802556332 -9.31574394094869e-16 0.0001244080802556332 -0.00010282438857734175 1.1870407082136057e-17 -9.31574394094869e-16 1.1870407082136057e-17 -0.00013003408221137183" pbc="T T T"
Si       1.98864563       0.88014850      11.18256564
Si       1.01019621       0.66679684       4.16773338
Si       4.00903805       2.21374218       2.84709889
Si       4.98748747       2.42709384       9.86193115
Si       4.61887728       0.89789481       4.82916204
Si       4.28115103       1.08111245      11.84399431
Si       1.37880639       2.19599587       9.20050249
Si       1.71653265       2.01277822       2.18567022
Si       2.46809912       0.94304705       6.04955824
Si       0.53074272       0.60389829      13.06439050
Si       3.52958456       2.15084362       7.98010630
Si       5.46694096       2.48999239       0.96527403
Si       2.95059324       0.21603096      -0.00000000
Si       0.04824860       1.33091437       7.01483227
14
Lattice="5.903888721807162 0.4127513694438515 -1.057691970626262e-14 0.08771235037942751 2.6648698113877356 -5.130744096552118e-14 4.115264881962556e-15 2.6905530409002946e-13 14.0113507942802" Properties=species:S:1:pos:R:3 unique_starting_index=0 config_type=initial n_minim_iter=17 stress="0.0005414686069884291 -0.0002485356628251529 -8.060342454407004e-16 -0.0002485356628251529 0.00033846464663827745 7.40158266715157e-17 -8.060342454407004e-16 7.40158266715157e-17 0.00023341286418297806" pbc="T T T"
Si       1.99398891       0.87457730      11.17109670
Si       1.00181163       0.66423329       4.16542130
Si       3.99761217       2.20304388       2.84025410
Si       4.98978944       2.41338789       9.84592949
Si       4.61080613       0.88343527       4.81960849
Si       4.28888313       1.06812669      11.82528389
Si       1.38079495       2.19418591       9.19174230
Si       1.70271794       2.00949449       2.18606690
Si       2.46458776       0.93626221       6.04245847
Si       0.53121278       0.60254838      13.04813386
Si       3.52701331       2.14135897       7.96889233
Si       5.46038830       2.47507280       0.96321693
Si       2.95194436       0.20637568      -0.00000000
Si       0.04385618       1.33243491       7.00567540
14
Lattice="5.895427959504418 0.34547092172510274 -9.43350477649896e-15 0.057597608134441425 2.6649658848620734 -5.1319228508474284e-14 3.734596928158527e-15 2.6793432391043034e-13 13.957575257632886" Properties=species:S:1:pos:R:3 unique_starting_index=0 config_type=initial n_minim_iter=18 stress="-0.0023880966000453894 0.00015828982301913861 -9.592286953972858e-16 0.00015828982301913861 -0.00017868196509640186 1.3040643778092311e-16 -9.592286953972858e-16 1.3040643778092311e-16 0.00015834646545146087" pbc="T T T"
Si       2.02015192       0.84995474      11.14977479
Si       0.95636087       0.65526366       4.17098716
Si       3.93287365       2.16048206       2.80780047
Si       4.99666470       2.35517315       9.78658810
Si       4.55321038       0.86167700       4.79190772
Si       4.31873036       0.98901232      11.77069535
Si       1.39981518       2.14875980       9.16566754
Si       1.63429521       2.02142449       2.18687991
Si       2.43142322       0.89833628       6.02761264
Si       0.54508956       0.60688213      13.00640027
Si       3.52160235       2.11210053       7.92996262
Si       5.40793600       2.40355468       0.95117499
Si       2.94771398       0.17273546      -0.00000000
Si       0.02879880       1.33248294       6.97878763
14
Lattice="5.904938583292193 0.2594945550829765 -8.07697947728529e-15 0.01900989460326183 2.671556656064926 -5.147344405719629e-14 3.0003446399762167e-15 2.6575600170477515e-13 13.853633272672946" Properties=species:S:1:pos:R:3 unique_starting_index=0 config_type=initial n_minim_iter=19 stress="-0.0009227486621025579 0.0002528012413516026 -1.2394082842530107e-15 0.0002528012413516026 0.0018353790085797184 1.3733090972504146e-16 -1.2394082842530107e-15 1.3733090972504146e-16 0.0012701066362494217" pbc="T T T"
Si       2.05956151       0.81124831      11.08142421
Si       0.90241273       0.65427729       4.15460758
Si       3.86438697       2.11980290       2.77220906
Si       5.02153575       2.27677392       9.69902570
Si       4.50153797       0.82794579       4.74482683
Si       4.36537486       0.89707437      11.67164346
Si       1.42241051       2.10310542       9.10880645
Si       1.55857362       2.03397684       2.18198981
Si       2.40203178       0.84859241       5.99311837
Si       0.55994246       0.61693319      12.91993501
Si       3.52191670       2.08245880       7.86051490
Si       5.36400601       2.31411802       0.93369826
Si       2.95246929       0.12974728      -0.00000000
Si       0.00950495       1.33577833       6.92681664
14
Lattice="5.914163808440249 0.22987014183167098 -7.724156861589493e-15 0.0061664849540057215 2.6699207875472033 -5.146330044921679e-14 2.471947669538692e-15 2.6472764467644186e-13 13.805860349772505" Properties=species:S:1:pos:R:3 unique_starting_index=0 config_type=initial n_minim_iter=20 stress="-0.00026408746284072623 0.00011980468876406688 -1.4510636573487824e-15 0.00011980468876406688 0.0008082123329933247 8.709437887211015e-17 -1.4510636573487824e-15 8.709437887211015e-17 0.0009225979901968753" pbc="T T T"
Si       2.07829650       0.78860007      11.04404589
Si       0.88186865       0.66129540       4.14111571
Si       3.84203379       2.11119086       2.76181446
Si       5.03846165       2.23849553       9.66474464
Si       4.49045476       0.81654236       4.72706763
Si       4.38387419       0.86322325      11.62999780
Si       1.42987553       2.08324857       9.07879272
Si       1.53645610       2.03656768       2.17586255
Si       2.39335404       0.82372137       5.97610507
Si       0.56681111       0.62617410      12.87903525
Si       3.52697625       2.07606956       7.82975528
Si       5.35351919       2.27361683       0.92682510
Si       2.95708190       0.11493507      -0.00000000
Si       0.00308324       1.33496039       6.90293017
14
Lattice="5.917950287895568 0.24789534171781663 -8.221457597968112e-15 0.014431762830994593 2.667917751960323 -5.144025413429032e-14 2.1179317242413404e-15 2.6484354462605347e-13 13.814812840934833" Properties=species:S:1:pos:R:3 unique_starting_index=0 config_type=initial n_minim_iter=21 stress="0.00017413856069430005 0.00027663265494008916 -1.4596461509293567e-15 0.00027663265494008916 0.00021004809743760034 1.4242623324816445e-16 -1.4596461509293567e-15 1.4242623324816445e-16 0.0002020041663697535" pbc="T T T"
Si       2.07232023       0.79195267      11.04426081
Si       0.89387079       0.66595388       4.13685439
Si       3.86006182       2.12386043       2.77055203
Si       5.03851126       2.24985922       9.67795845
Si       4.50868951       0.82384534       4.73360305
Si       4.37545181       0.88195655      11.64100947
Si       1.42369255       2.09196775       9.08120979
Si       1.55693024       2.03385655       2.17380337
Si       2.40218716       0.83003595       5.97764703
Si       0.56400386       0.62787059      12.88505345
Si       3.53019489       2.08577714       7.83716581
Si       5.36837819       2.28794250       0.92975939
Si       2.95897514       0.12394767      -0.00000000
Si       0.00721588       1.33395888       6.90740642
