16
Lattice="8.57996518585689 0.6481381506542847 -1.0161509631295753 1.8085521873644494 6.644690975385092 -0.5183472765077565 0.4713693860711763 0.9902145305944154 6.848912704143772" Properties=species:S:1:pos:R:3 unique_starting_index=30 config_type=initial n_minim_iter=1 energy=-2602.5977610833756 free_energy=-2602.5977610833756 pbc="T T T"
Si       5.13222575       5.87496890       2.52632672
Si       5.72766101       2.40807476       2.78808774
Si       3.79516830       3.39647672       1.61072728
Si       7.06471846       4.88656694       3.70368718
Si       6.20983337       3.34112187       4.87262332
Si       4.65005339       4.94192179       0.44179115
Si       5.96315436       4.29933971      -1.13578979
Si       4.89673240       3.98370394       6.45020425
Si       2.14531729       3.57867625       2.97883747
Si       8.71456947       4.70436741       2.33557700
Si       9.95119145       6.14443691       1.38517301
Si       0.90869531       2.13860675       3.92924145
Si       3.25277666       1.78816562       3.26493824
Si       7.60711010       6.49487804       2.04947622
Si       6.34560489       6.17732151      -0.21853853
Si       4.51428187       2.10572215       5.53295299
16
Lattice="8.591789157064357 0.668347013426429 -1.0198202839491057 1.8220651197445759 6.698574935545086 -0.5249438946322024 0.4721395468513252 0.9927949671041882 6.856615026609836" Properties=species:S:1:pos:R:3 unique_starting_index=30 config_type=initial n_minim_iter=2 stress="0.012715825687800022 -0.0006432330452485976 -0.008938520229955853 -0.0006432330452485976 0.001790064863617464 -0.0007925231680341136 -0.008938520229955853 -0.0007925231680341136 0.013609427198028792" pbc="T T T"
Si       5.14797405       5.92612267       2.52302657
Si       5.73801977       2.43359425       2.78882428
Si       3.80468599       3.42664737       1.61041878
Si       7.08130783       4.93306955       3.70143206
Si       6.22144227       3.37199983       4.87473592
Si       4.66455156       4.98771708       0.43711493
Si       5.97753804       4.34275585      -1.14139398
Si       4.90845578       4.01696107       6.45324483
Si       2.15360739       3.60733519       2.97885282
Si       8.73238643       4.75238172       2.33299803
Si       9.97356683       6.20666034       1.37955631
Si       0.91242699       2.15305657       3.93229454
Si       3.25927480       1.80406326       3.26717160
Si       7.62671902       6.55565366       2.04467925
Si       6.36383307       6.23550500      -0.22486917
Si       4.52216075       2.12421191       5.53672002
16
Lattice="8.54849868527149 0.6840967503148594 -0.9825345584505639 1.821319041536985 6.731687722524079 -0.5170432647943529 0.49713019695536687 0.9964244520089435 6.823366838116511" Properties=species:S:1:pos:R:3 unique_starting_index=30 config_type=initial n_minim_iter=3 stress="-0.006066163336830905 0.0008918812224144064 0.006994119150171662 0.0008918812224144064 0.003052373248370743 -0.004188146777618572 0.006994119150171662 -0.004188146777618572 -0.0026695335958969927" pbc="T T T"
Si       5.14236804       5.96014368       2.52659632
Si       5.72457988       2.45206524       2.79719269
Si       3.79693005       3.44632182       1.61902742
Si       7.07001787       4.96588711       3.70476160
Si       6.21395072       3.39471099       4.87271000
Si       4.65299720       5.01749794       0.45107901
Si       5.94938356       4.37013633      -1.11162692
Si       4.91756437       4.04207259       6.43541593
Si       2.16037468       3.62608605       2.97062877
Si       8.70657325       4.78612287       2.35316024
Si       9.94062389       6.24763715       1.40908510
Si       0.92632403       2.16457177       3.91470391
Si       3.25922473       1.81546118       3.26336700
Si       7.60772320       6.59674775       2.06042201
Si       6.34198107       6.27405435      -0.20001525
Si       4.52496685       2.13815457       5.52380427
16
Lattice="8.565906752617625 0.6830700050550994 -1.0209608403835786 1.8324016710662783 6.735546260780944 -0.46487553440670004 0.4576149684950012 1.0590524985805774 6.781583342163794" Properties=species:S:1:pos:R:3 unique_starting_index=30 config_type=initial n_minim_iter=4 stress="-0.012242103232237454 -0.0056125957337590454 0.0047336158307753826 -0.0056125957337590454 -0.002115290882175573 0.013551204611900614 0.0047336158307753826 0.013551204611900614 0.006696510093671751" pbc="T T T"
Si       5.14202341       5.99501377       2.52099830
Si       5.71389998       2.48265499       2.77474867
Si       3.79540834       3.46307527       1.63075864
Si       7.06051505       5.01459350       3.66498833
Si       6.19123326       3.44543686       4.82609020
Si       4.66469013       5.03223190       0.46965676
Si       5.95958672       4.36209458      -1.08948187
Si       4.89633667       4.11557418       6.38522884
Si       2.14679392       3.65808391       2.97114397
Si       8.70912948       4.81958486       2.32460300
Si       9.94894193       6.26569627       1.39854186
Si       0.90698146       2.21197250       3.89720511
Si       3.24693109       1.84579016       3.24258804
Si       7.60899230       6.63187861       2.05315893
Si       6.35507497       6.28922955      -0.17382754
Si       4.50084842       2.18843921       5.46957451
16
Lattice="8.669640299172274 0.7295153264361548 -1.0864330231788262 1.8920382714912118 6.718362799570997 -0.4940217640411808 0.40240186307073716 1.0352985411875375 6.648141797522857" Properties=species:S:1:pos:R:3 unique_starting_index=30 config_type=initial n_minim_iter=5 stress="-0.011662205055258291 0.011323062674094586 -0.006251110279643978 0.011323062674094586 -0.009198167324928655 0.0042399535851929526 -0.006251110279643978 0.0042399535851929526 -0.001153443200369923" pbc="T T T"
Si       5.20872923       5.99191438       2.39280890
Si       5.75535120       2.49126229       2.67487811
Si       3.84040249       3.45815293       1.57171660
Si       7.12367795       5.02502373       3.49597041
Si       6.22215034       3.44875715       4.65900185
Si       4.74193009       5.03441951       0.40868516
Si       6.04877869       4.37121165      -1.12640280
Si       4.91530174       4.11196502       6.19408981
Si       2.16065782       3.64541640       2.88634382
Si       8.80342262       4.83776027       2.18134319
Si      10.07396186       6.27949782       1.26138858
Si       0.89011857       2.20367885       3.80629843
Si       3.26141273       1.84019069       3.15333164
Si       7.70266770       6.64298598       1.91435537
Si       6.45380874       6.30217678      -0.23997878
Si       4.51027169       2.18099989       5.30766579
16
Lattice="8.818698079998798 0.6790761120453859 -1.0911498076594939 1.8821710337148811 6.715050036820567 -0.5173238133059163 0.3886898531819658 1.004157928565934 6.524299201689961" Properties=species:S:1:pos:R:3 unique_starting_index=30 config_type=initial n_minim_iter=6 stress="0.007786958864853191 -0.0049127504423713735 -0.006777771904267203 -0.0049127504423713735 9.180786144722899e-05 -0.000573247852769542 -0.006777771904267203 -0.000573247852769542 -0.004363491814250788" pbc="T T T"
Si       5.26111333       5.95658221       2.29608804
Si       5.82844564       2.44170187       2.61973754
Si       3.88595523       3.42617206       1.53750940
Si       7.20360373       4.97211202       3.37831618
Si       6.29467138       3.39247956       4.53384980
Si       4.79488759       5.00580452       0.38197578
Si       6.12485958       4.33456118      -1.12721865
Si       4.96469939       4.06372290       6.04304423
Si       2.16857580       3.62039997       2.81776697
Si       8.92098316       4.77788411       2.09805861
Si      10.20518212       6.20749170       1.19178086
Si       0.88437685       2.19079237       3.72404472
Si       3.30147239       1.80055836       3.09034590
Si       7.78808657       6.59772572       1.82547968
Si       6.52117191       6.27134774      -0.26500523
Si       4.56838706       2.12693634       5.18083081
16
Lattice="8.895210939744363 0.7083157504196717 -1.0768172756414518 1.918851657525429 6.712957390637909 -0.5290095579582167 0.4020123471470576 0.9861279259702258 6.464700780333205" Properties=species:S:1:pos:R:3 unique_starting_index=30 config_type=initial n_minim_iter=7 stress="0.008995111268923056 -0.0056057061624657685 -0.01095366328169688 -0.0056057061624657685 -0.002368381400250817 -0.008609826927874573 -0.01095366328169688 -0.008609826927874573 -0.018762104058153057" pbc="T T T"
Si       5.33303549       5.96087110       2.24392253
Si       5.88303945       2.44652997       2.61495142
Si       3.93782211       3.42821465       1.53497209
Si       7.27825284       4.97918641       3.32390186
Si       6.36292177       3.39492105       4.47055819
Si       4.85315318       5.01248002       0.38831575
Si       6.19349400       4.34692371      -1.11419639
Si       5.02258095       4.06047736       5.97307034
Si       2.20024584       3.60995965       2.78918870
Si       9.01582911       4.79744142       2.06968524
Si      10.31254814       6.22127753       1.17499081
Si       0.90352680       2.18612354       3.68388313
Si       3.33754530       1.79504254       3.07018189
Si       7.87852965       6.61235853       1.78869206
Si       6.59005163       6.28513663      -0.26021918
Si       4.62602331       2.12226443       5.11909313
16
Lattice="9.068057491478427 0.8294492687098013 -0.9147880276381577 2.043531603051859 6.68122770528832 -0.5135837133960922 0.5673009479696475 0.9684945977487431 6.5587760638108925" Properties=species:S:1:pos:R:3 unique_starting_index=30 config_type=initial n_minim_iter=8 stress="0.03247261968711527 0.015026663400797467 0.0005580686043727793 0.015026663400797467 0.010646319617500418 -0.006817995572209976 0.0005580686043727793 -0.006817995572209976 0.003316857161044254" pbc="T T T"
Si       5.59559574       5.99034289       2.33402480
Si       6.08329430       2.48882869       2.79637952
Si       4.12309252       3.45163761       1.65754750
Si       7.55579752       5.02753396       3.47285682
Si       6.64612131       3.45701167       4.62071867
Si       5.03276873       5.02215990       0.50968566
Si       6.37605808       4.39336205      -0.99793624
Si       5.30283196       4.08580952       6.12834056
Si       2.36128326       3.59357059       2.87088737
Si       9.31760679       4.88560098       2.25951695
Si      10.64516754       6.30422278       1.38455720
Si       1.03372250       2.17494879       3.74584713
Si       3.49641811       1.80948927       3.19489492
Si       8.18247193       6.66968230       1.93550941
Si       6.79604730       6.32039408      -0.11661035
Si       4.88284274       2.15877750       5.24701468
16
Lattice="8.89264533110886 0.8404222471459276 -0.9114547452827164 2.0054892774691147 6.697844596722994 -0.5820518809809867 0.5795685734081593 0.9029401669522749 6.668756209938536" Properties=species:S:1:pos:R:3 unique_starting_index=30 config_type=initial n_minim_iter=9 stress="0.01567727995831382 0.001821781364120602 -0.0041437455253107444 0.001821781364120602 0.004754612036224125 -0.013992041845217393 -0.0041437455253107444 -0.013992041845217393 0.005155229754525255" pbc="T T T"
Si       5.51882650       5.99309526       2.30333849
Si       5.95887668       2.44811175       2.87191109
Si       4.07780771       3.44370599       1.69446413
Si       7.39989547       4.99750102       3.48078546
Si       6.54450221       3.43179157       4.66133080
Si       4.93320097       5.00941544       0.51391878
Si       6.27141053       4.40235315      -1.02896695
Si       5.20629266       4.03885386       6.20421653
Si       2.32571248       3.56154443       2.90451843
Si       9.15199070       4.87966258       2.27073115
Si      10.45165245       6.30539788       1.37786416
Si       1.02605074       2.13580913       3.79738542
Si       3.43625011       1.76961535       3.26799453
Si       8.04145307       6.67159166       1.90725506
Si       6.64958541       6.32593278      -0.12930028
Si       4.82811778       2.11527423       5.30454986
16
Lattice="8.83472331092527 0.876169143244509 -0.8896504976457641 2.0206864777574354 6.754115679863858 -0.5373803926098889 0.5906475696690492 0.95314255787616 6.6393960739453926" Properties=species:S:1:pos:R:3 unique_starting_index=30 config_type=initial n_minim_iter=10 stress="0.0044936195951555 -0.0016778291422695373 0.0023733425698480052 -0.0016778291422695373 0.006324543809322863 0.007819259172004954 0.0023733425698480052 0.007819259172004954 0.0009961388006547163" pbc="T T T"
Si       5.52650178       6.08749187       2.31696016
Si       5.91955558       2.49593552       2.89540502
Si       4.09019827       3.49986428       1.72390692
Si       7.35585909       5.08356310       3.48845827
Si       6.52710458       3.52591276       4.65287475
Si       4.91895277       5.05751462       0.55949044
Si       6.25779834       4.44948245      -0.98661658
Si       5.18825902       4.13394493       6.19898177
Si       2.32357890       3.61540139       2.92026738
Si       9.12247846       4.96802599       2.29209781
Si      10.41573360       6.40823467       1.41798732
Si       1.03032376       2.17519271       3.79437787
Si       3.42356583       1.81067713       3.27989164
Si       8.02249153       6.77275026       1.93247354
Si       6.61935555       6.39658220      -0.06477487
Si       4.82670181       2.18684519       5.27714005
16
Lattice="8.743786137481528 0.9130008727286562 -0.8584218224079994 2.02540462382666 6.775874312614436 -0.5467288153793339 0.6200606614058881 0.9419673472365805 6.67642938832917" Properties=species:S:1:pos:R:3 unique_starting_index=30 config_type=initial n_minim_iter=11 stress="-0.009734552929251397 0.001997206581654168 0.0075742739308811095 0.001997206581654168 -0.00012668435937482036 -0.00901279245209223 0.0075742739308811095 -0.00901279245209223 0.01111800489730348" pbc="T T T"
Si       5.55131653       6.15257088       2.29666964
Si       5.83793489       2.47827165       2.97460911
Si       4.12076625       3.49957535       1.79975902
Si       7.26848517       5.13126718       3.47151973
Si       6.48984815       3.56667312       4.69631574
Si       4.89940328       5.06416941       0.57496302
Si       6.22366250       4.45764526      -0.96626313
Si       5.16558893       4.17319727       6.23754188
Si       2.31028159       3.61364818       2.96524823
Si       9.07896983       5.01719435       2.30603052
Si      10.35197691       6.46219868       1.44912447
Si       1.03727451       2.16864385       3.82215428
Si       3.40175409       1.81030888       3.34662744
Si       7.98749734       6.82053365       1.92465131
Si       6.53533923       6.41919089      -0.00500967
Si       4.85391219       2.21165164       5.27628842
16
Lattice="8.722876370501261 0.9086420483382226 -0.8429470283146968 2.0270490699449253 6.783964601641325 -0.45407163932806405 0.6157666494249845 1.0347006851475309 6.608967386873563" Properties=species:S:1:pos:R:3 unique_starting_index=30 config_type=initial n_minim_iter=12 stress="-0.02635296947037631 0.004700632305383745 0.001058181197939187 0.004700632305383745 -0.01968405080975993 0.007523851522236558 0.001058181197939187 0.007523851522236558 0.008376104905244588" pbc="T T T"
Si       5.58848221       6.23843029       2.30023822
Si       5.77720988       2.48887705       3.01171050
Si       4.15558914       3.51346140       1.88356114
Si       7.21010295       5.21384593       3.42838758
Si       6.46321981       3.65322944       4.67501935
Si       4.90247228       5.07407789       0.63692937
Si       6.23527194       4.43539954      -0.89723698
Si       5.13042015       4.29190779       6.20918570
Si       2.31502066       3.65751578       2.99301164
Si       9.05067143       5.06979155       2.31893708
Si      10.34790284       6.51277611       1.49689505
Si       1.01778925       2.21453123       3.81505367
Si       3.38153123       1.85809107       3.36598657
Si       7.98416086       6.86921627       1.94596215
Si       6.47760228       6.41838205       0.11683004
Si       4.88808981       2.30892528       5.19511867
16
Lattice="8.827464059281956 0.877544342096688 -0.8012559940684149 2.0274157132198796 6.792188679019094 -0.40725879820300726 0.6380393481827948 1.0712916285120166 6.521156298660796" Properties=species:S:1:pos:R:3 unique_starting_index=30 config_type=initial n_minim_iter=13 stress="-0.009776546309098036 -0.008539053582867448 -0.001487522223756504 -0.008539053582867448 -0.026952570779261286 0.004651721932184163 -0.001487522223756504 0.004651721932184163 -0.007253563002267556" pbc="T T T"
Si       5.66497720       6.26828646       2.28882693
Si       5.82794192       2.47273819       3.02381457
Si       4.21234338       3.50823791       1.91256680
Si       7.28057574       5.23278674       3.40007470
Si       6.54317990       3.67522760       4.64162684
Si       4.94973922       5.06579705       0.67101466
Si       6.30307311       4.40464777      -0.84650742
Si       5.18984601       4.33637688       6.15914892
Si       2.35036443       3.68723932       2.97889715
Si       9.14255469       5.05378533       2.33374436
Si      10.47211972       6.50226051       1.53331508
Si       1.02079940       2.23876414       3.77932643
Si       3.42267799       1.87718188       3.35692283
Si       8.07024113       6.86384277       1.95571867
Si       6.52303043       6.41612601       0.17674071
Si       4.96988869       2.32489864       5.13590080
16
Lattice="8.87877488196521 0.8484481549769157 -0.7853623688992027 2.015347804827271 6.815500412958144 -0.38723984464088734 0.642496645704591 1.0891536774123634 6.467612677559769" Properties=species:S:1:pos:R:3 unique_starting_index=30 config_type=initial n_minim_iter=14 stress="0.014195462391720596 -0.0029426569827573734 -0.0030110669586256075 -0.0029426569827573734 0.008396450815246375 0.009286047417276773 -0.0030110669586256075 0.009286047417276773 -3.81058469951623e-05" pbc="T T T"
Si       5.68198635       6.28673253       2.28951194
Si       5.85463298       2.46636972       3.00549853
Si       4.21960310       3.50603694       1.89821066
Si       7.31701623       5.24706531       3.39679980
Si       6.57027878       3.67224203       4.61843775
Si       4.96634055       5.08086022       0.67657272
Si       6.32685849       4.41204189      -0.82869972
Si       5.20976085       4.34106035       6.12371018
Si       2.36434219       3.70840133       2.96168527
Si       9.17227714       5.04470092       2.33332520
Si      10.51573104       6.49212631       1.54240389
Si       1.02088829       2.26097594       3.75260658
Si       3.43920584       1.89806776       3.33576509
Si       8.09741350       6.85503448       1.95924538
Si       6.55114915       6.42931410       0.17538437
Si       4.98547018       2.32378814       5.11962609
16
Lattice="8.802196218115943 0.8179514617449977 -0.762266716452105 1.970581578873542 6.836024918551183 -0.4046395862897315 0.6551688257340585 1.067887807093584 6.470622703446617" Properties=species:S:1:pos:R:3 unique_starting_index=30 config_type=initial n_minim_iter=15 stress="-0.006350905947382435 -0.011365261388794411 0.00420081174042292 -0.011365261388794411 0.014373549914853434 0.004714608432916604 0.00420081174042292 0.004714608432916604 0.0023266032447306615" pbc="T T T"
Si       5.63806306       6.29879814       2.27869968
Si       5.78988356       2.42306605       3.02501673
Si       4.18425778       3.48158788       1.89580545
Si       7.24368885       5.24027631       3.40791095
Si       6.50862171       3.64155708       4.63251688
Si       4.91932492       5.08030711       0.67119952
Si       6.26729508       4.41604956      -0.84103007
Si       5.16065155       4.30581462       6.14474647
Si       2.33885849       3.71709589       2.96102837
Si       9.08908813       5.00476830       2.34268803
Si      10.41638370       6.46076126       1.54829966
Si       1.01156292       2.26110293       3.75541674
Si       3.41265259       1.90011921       3.35555568
Si       8.01529403       6.82174497       1.94816072
Si       6.47574790       6.43149186       0.15574639
Si       4.95219872       2.29037233       5.14797001
16
Lattice="8.748835907214502 0.8409441873452119 -0.7418367882928925 1.968981946190757 6.871775536812134 -0.4403019102104752 0.6733417123314445 1.0309718665952672 6.46516878588446" Properties=species:S:1:pos:R:3 unique_starting_index=30 config_type=initial n_minim_iter=16 stress="0.002114100853429438 0.002791493170327956 0.00014132019402191104 0.002791493170327956 0.020113808060217186 -0.009035439636663605 0.00014132019402191104 -0.009035439636663605 0.005134913087477376" pbc="T T T"
Si       5.64931285       6.34718235       2.24210968
Si       5.74184671       2.39650924       3.04092041
Si       4.18152408       3.47419215       1.88126063
Si       7.20963548       5.26949944       3.40176945
Si       6.48448748       3.64873577       4.62653171
Si       4.90667209       5.09495582       0.65649837
Si       6.24584111       4.45718158      -0.87155167
Si       5.14531845       4.28651001       6.15458176
Si       2.34382737       3.72581198       2.95121740
Si       9.04733220       5.01787961       2.33181269
Si      10.37038380       6.48298992       1.53269724
Si       1.02077577       2.26070167       3.75033285
Si       3.39955127       1.91877706       3.37483059
Si       7.99160830       6.82491453       1.90819950
Si       6.45988993       6.48276133       0.11014947
Si       4.93126964       2.26093026       5.17288062
16
Lattice="8.753550848683426 0.8996089234882321 -0.6347701388232728 2.0075142258268874 6.908588686018146 -0.4288596439477915 0.7626655819257352 1.0242499311063356 6.4341061371567045" Properties=species:S:1:pos:R:3 unique_starting_index=30 config_type=initial n_minim_iter=17 stress="-0.0070354803381701535 0.009508502469916254 0.005360830161216127 0.009508502469916254 0.011611618401437002 -0.004821259912867578 0.005360830161216127 -0.004821259912867578 -0.004722104977803881" pbc="T T T"
Si       5.81881008       6.49071760       2.19750939
Si       5.70492057       2.34172994       3.17296697
Si       4.30190770       3.46147851       1.95880417
Si       7.22182295       5.37096903       3.41167218
Si       6.53016471       3.72458773       4.64232497
Si       4.99356594       5.10785981       0.72815138
Si       6.30323633       4.51843105      -0.81609888
Si       5.22049432       4.31401649       6.18657523
Si       2.42018970       3.75510680       2.98903015
Si       9.10354095       5.07734074       2.38144621
Si      10.44547483       6.54472630       1.61142081
Si       1.07825583       2.28772124       3.75905554
Si       3.43617385       1.97293337       3.47983159
Si       8.08755681       6.85951417       1.89064477
Si       6.48845300       6.55375368       0.16795741
Si       5.03527766       2.27869386       5.20251895
16
Lattice="8.747727310193586 0.9095594572244895 -0.6163690823371263 2.0141910088236394 6.892737092526338 -0.4279103438134712 0.7813920518339454 1.0201529764419364 6.458592373239765" Properties=species:S:1:pos:R:3 unique_starting_index=30 config_type=initial n_minim_iter=18 stress="-0.010394740185597762 0.009567524453377916 0.010707892314698438 0.009567524453377916 0.0037093660016938707 -0.0023939477157448505 0.010707892314698438 -0.0023939477157448505 -0.024691611487791837" pbc="T T T"
Si       5.85449413       6.50351865       2.19634590
Si       5.68881624       2.31893087       3.21796705
Si       4.31950070       3.44592296       1.98443098
Si       7.22380967       5.37652657       3.42988196
Si       6.53232990       3.73373809       4.66261843
Si       5.01098047       5.08871144       0.75169452
Si       6.31093831       4.51864555      -0.81315275
Si       5.23237206       4.30380397       6.22746570
Si       2.43813400       3.75574875       3.00756936
Si       9.10517637       5.06670077       2.40674359
Si      10.45055081       6.53287589       1.63276423
Si       1.09275956       2.28957364       3.78154871
Si       3.44399905       1.96710210       3.52461623
Si       8.09931132       6.85534743       1.88969672
Si       6.49090832       6.54456981       0.17506560
Si       5.05240205       2.27787972       5.23924735
16
Lattice="8.727253623959301 0.908201524669999 -0.6134814072069446 2.0121562192731477 6.833653032447377 -0.4359853902215713 0.7931218258596869 1.006037484913372 6.539987899867588" Properties=species:S:1:pos:R:3 unique_starting_index=30 config_type=initial n_minim_iter=19 stress="0.006434551059593768 -0.003985796944198829 -0.0022895727263266175 -0.003985796944198829 0.0025053954569804345 -0.0036466328870982745 -0.0022895727263266175 -0.0036466328870982745 0.015419708624540075" pbc="T T T"
Si       5.87363041       6.47309669       2.20736448
Si       5.65890126       2.27479535       3.28315662
Si       4.31719504       3.40605262       2.01217107
Si       7.21533663       5.34183942       3.47835003
Si       6.50760249       3.71711077       4.71084521
Si       5.02492918       5.03078127       0.77967589
Si       6.30214278       4.49532835      -0.83418910
Si       5.23038889       4.25256369       6.32471020
Si       2.45197478       3.73917591       3.04259655
Si       9.08055689       5.00871613       2.44792455
Si      10.42638572       6.46927553       1.64978846
Si       1.10614594       2.27861651       3.84073264
Si       3.44354957       1.93334086       3.60286261
Si       8.08898210       6.81455118       1.88765850
Si       6.48345154       6.48886770       0.15637811
Si       5.04908013       2.25902434       5.33414299
16
Lattice="8.727633007238587 0.946876369252074 -0.6474731024617432 2.046385923175797 6.852089132372418 -0.40611701364060887 0.7649267103944711 1.048114415892669 6.520000206226851" Properties=species:S:1:pos:R:3 unique_starting_index=30 config_type=initial n_minim_iter=20 stress="0.004503045171289408 -0.0006738723619536438 -0.005049467800145931 -0.0006738723619536438 -0.011165369265704505 0.003885366123625293 -0.005049467800145931 0.003885366123625293 0.008488795205174565" pbc="T T T"
Si       5.89001881       6.52597828       2.20151513
Si       5.64892683       2.32110164       3.26489496
Si       4.30785468       3.44405610       1.99913549
Si       7.23109096       5.40302382       3.46727460
Si       6.48216753       3.79700441       4.67885596
Si       5.05677811       5.05007551       0.78755413
Si       6.31432546       4.52636748      -0.84762474
Si       5.22462018       4.32071244       6.31403483
Si       2.45596070       3.76344093       3.04343277
Si       9.08298494       5.08363898       2.42297732
Si      10.42509456       6.53797776       1.61955524
Si       1.11385108       2.30910216       3.84685485
Si       3.42232995       1.95035980       3.59134317
Si       8.11661569       6.89672011       1.87506692
Si       6.50366263       6.51728283       0.15242245
Si       5.03528302       2.32979709       5.31398764
16
Lattice="8.71081645240206 0.9843265093909447 -0.660224776289677 2.070726424622775 6.888287904735498 -0.39897075871745624 0.755925622394628 1.0643991514927533 6.511639218050908" Properties=species:S:1:pos:R:3 unique_starting_index=30 config_type=initial n_minim_iter=21 stress="-0.0037938387019243684 0.0032782596846094654 0.011864369697222226 0.0032782596846094654 0.010862762631977822 0.0026963207141054656 0.011864369697222226 0.0026963207141054656 -0.009372014708465751" pbc="T T T"
Si       5.90918657       6.58851957       2.17959901
Si       5.62828193       2.34849400       3.27284467
Si       4.29872671       3.47515247       1.99072685
Si       7.23874178       5.46186109       3.46171683
Si       6.44657911       3.86875415       4.65039667
Si       5.09088939       5.06825942       0.80204701
Si       6.30766355       4.57633199      -0.85809071
Si       5.22980495       4.36068157       6.31053440
Si       2.45987918       3.78782346       3.04583440
Si       9.07758932       5.14919010       2.40660928
Si      10.40577813       6.60662250       1.59046734
Si       1.13169037       2.33039107       3.86197634
Si       3.40400204       1.95369279       3.59856997
Si       8.13346646       6.98332077       1.85387372
Si       6.51268505       6.56119331       0.13345255
Si       5.02478345       2.37582026       5.31899113
