6
Lattice="3.1328500000000004 4.702748281224148e-16 1.8858681635748346e-16 -0.6003501440089286 4.604174369752788 5.603514368533996e-17 -1.1176268610123046 -1.060216499094206 8.043519196141212" Properties=species:S:1:pos:R:3 unique_starting_index=56 config_type=initial n_minim_iter=1 pbc="T T T"
Si      -0.17066837       3.35607194       6.52949803
Si       0.94403767       3.86988750       0.05198526
Si      -0.14385203       3.84528426       1.58391934
Si       0.38689258       1.82961228       6.22254367
Si       1.63706336       0.79299210       5.97963421
Si       0.13685743       2.13237669       1.44792837
6
Lattice="3.1501602274496125 -0.010591981815518431 -0.00492301928830347 -0.6192337575691372 4.651557319454866 0.0011462874426450582 -1.1328573959684776 -1.0665270376997706 8.090478876227536" Properties=species:S:1:pos:R:3 unique_starting_index=56 config_type=initial n_minim_iter=2 pbc="T T T"
Si      -0.19390892       3.39273098       6.56475685
Si       0.93686995       3.90418579       0.05250460
Si      -0.16106007       3.88536107       1.59443199
Si       0.37188358       1.84573727       6.25658549
Si       1.63580563       0.79435836       6.01022564
Si       0.12836930       2.15127414       1.45604365
6
Lattice="3.5299437800507305 -0.26989035459729227 -0.11695484406056111 -1.073088245519966 5.732836429715137 0.02326002615284848 -1.46823062477948 -1.210444061097405 9.110223066718437" Properties=species:S:1:pos:R:3 unique_starting_index=56 config_type=initial n_minim_iter=3 pbc="T T T"
Si      -0.74527783       4.23079791       7.32321617
Si       0.74736139       4.67435486       0.06072889
Si      -0.57813395       4.80058306       1.82054861
Si       0.01847032       2.20623305       6.99339843
Si       1.59883119       0.80371629       6.66705550
Si      -0.07505886       2.57601899       1.62977470
6
Lattice="3.5486549900384854 -0.3109050214902007 -0.13747149599755157 -1.1369508484862756 5.749403988928695 0.0015031796203187615 -1.51370162021028 -1.2426953962121443 9.265916039870522" Properties=species:S:1:pos:R:3 unique_starting_index=56 config_type=initial n_minim_iter=4 pbc="T T T"
Si      -0.83386880       4.21347862       7.40809527
Si       0.70739867       4.66045624       0.04668352
Si      -0.64473468       4.80303994       1.82712681
Si      -0.04844916       2.17328152       7.09274576
Si       1.56374965       0.74365409       6.75778898
Si      -0.11129891       2.56947834       1.64208132
6
Lattice="3.5446559544722605 -0.36083450786518834 -0.1672873260274963 -1.209563083315442 5.704410151911876 -0.020143604568978565 -1.5719293382247757 -1.2601180097294857 9.41035259380014" Properties=species:S:1:pos:R:3 unique_starting_index=56 config_type=initial n_minim_iter=5 pbc="T T T"
Si      -0.94929706       4.14916130       7.47714537
Si       0.65315098       4.58725753       0.03090916
Si      -0.72907217       4.75339860       1.82835848
Si      -0.14213351       2.11362746       7.18027676
Si       1.49563672       0.66466394       6.83395411
Si      -0.15890055       2.53362115       1.64907641
6
Lattice="3.5091453387087124 -0.4301645583249739 -0.21170327859217114 -1.3046486565452875 5.590207112168041 -0.022864597712115832 -1.6498354255446117 -1.2256508428382806 9.515995470310516" Properties=species:S:1:pos:R:3 unique_starting_index=56 config_type=initial n_minim_iter=6 pbc="T T T"
Si      -1.11392764       4.05942117       7.52106958
Si       0.57246476       4.44090286       0.02968858
Si      -0.84968435       4.65304608       1.83258228
Si      -0.27795269       2.04552687       7.24385506
Si       1.37436092       0.58059527       6.87877557
Si      -0.22702871       2.46904054       1.65211218
6
Lattice="3.5241217470954496 -0.4652031069437475 -0.24119755841427692 -1.3590127903006908 5.515625240964176 -0.008804432786474137 -1.7190463341007316 -1.1797415967648348 9.612678153794128" Properties=species:S:1:pos:R:3 unique_starting_index=56 config_type=initial n_minim_iter=7 pbc="T T T"
Si      -1.21733809       4.03089643       7.58205023
Si       0.55133142       4.34375785       0.04832329
Si      -0.92545606       4.59943943       1.85327287
Si      -0.33848514       2.02188124       7.31513761
Si       1.29973221       0.54956747       6.93747324
Si      -0.26059990       2.43217708       1.66339342
6
Lattice="3.4857338102423574 -0.49531519176671746 -0.2463608126020361 -1.3959105306150308 5.404898609687213 0.01022877643454117 -1.708417678294199 -1.1106505979698684 9.57366010736606" Properties=species:S:1:pos:R:3 unique_starting_index=56 config_type=initial n_minim_iter=8 pbc="T T T"
Si      -1.26337594       3.98289913       7.55775277
Si       0.51577599       4.22467376       0.07425030
Si      -0.97533327       4.51774549       1.85456838
Si      -0.35648543       1.99554279       7.29593229
Si       1.24769892       0.53307768       6.91754514
Si      -0.28135821       2.38201307       1.65747527
6
Lattice="3.514260515837366 -0.49061454244675873 -0.24878940359349397 -1.3944688410007526 5.456475422233709 0.006093860684120474 -1.7264205627776559 -1.132448462063616 9.635721380532734" Properties=species:S:1:pos:R:3 unique_starting_index=56 config_type=initial n_minim_iter=9 pbc="T T T"
Si      -1.26882870       4.02071539       7.59989709
Si       0.53647135       4.26402051       0.07461369
Si      -0.97850096       4.56451035       1.86212349
Si      -0.34442225       2.00960886       7.34005333
Si       1.25012888       0.53692574       6.96198772
Si      -0.27568356       2.40294523       1.66397158
6
Lattice="3.496029667811139 -0.494050270153389 -0.24819298066450152 -1.3960245481716587 5.444342639876249 0.008064948272160116 -1.717222790802469 -1.1246341531670514 9.61708104300666" Properties=species:S:1:pos:R:3 unique_starting_index=56 config_type=initial n_minim_iter=10 pbc="T T T"
Si      -1.27180698       4.01591154       7.58618620
Si       0.53011951       4.24922390       0.07843882
Si      -0.98449704       4.55676650       1.85843242
Si      -0.34516687       2.00742184       7.32807261
Si       1.23845540       0.53502723       6.95083096
Si      -0.27738000       2.39722801       1.65970875
6
Lattice="3.4839095837406937 -0.4977712270907766 -0.24845021816202392 -1.3991704505752116 5.444464226754239 0.007766513651200499 -1.7123002261399338 -1.1237780095679577 9.619466200935815" Properties=species:S:1:pos:R:3 unique_starting_index=56 config_type=initial n_minim_iter=11 pbc="T T T"
Si      -1.27825229       4.01744655       7.58642440
Si       0.52697473       4.24302535       0.08082051
Si      -0.99316736       4.55932954       1.85679690
Si      -0.34541601       2.00696718       7.33075758
Si       1.22703379       0.53174180       6.95399429
Si      -0.27883224       2.39607377       1.65745462
6
Lattice="3.453451467514364 -0.5096757711967903 -0.24993082363191957 -1.4108291838033569 5.454523423598263 0.0042148467393297905 -1.7012071561280444 -1.1280226333106493 9.64503285694898" Properties=species:S:1:pos:R:3 unique_starting_index=56 config_type=initial n_minim_iter=12 pbc="T T T"
Si      -1.30194210       4.02426301       7.59967479
Si       0.52151119       4.22963993       0.08557701
Si      -1.02324011       4.57508143       1.85282318
Si      -0.34601015       2.00795423       7.35208010
Si       1.19334480       0.51916552       6.97572414
Si      -0.28289946       2.39643973       1.65138024
6
Lattice="3.4120426406185387 -0.5277848385795009 -0.24604616608737076 -1.4295078657426281 5.466080431949387 -0.0010060112933227006 -1.6703325637364013 -1.1312448483912134 9.653824265836759" Properties=species:S:1:pos:R:3 unique_starting_index=56 config_type=initial n_minim_iter=13 pbc="T T T"
Si      -1.32464592       4.02084225       7.60635126
Si       0.51069609       4.21064731       0.08709738
Si      -1.06082292       4.59011482       1.84371538
Si      -0.34464259       2.01894918       7.36643942
Si       1.16663142       0.50201798       6.98689360
Si      -0.28776435       2.40043000       1.63964204
6
Lattice="3.4222775713576943 -0.5342737648578699 -0.23431824664841042 -1.441005604287805 5.503403844969305 -0.011829280710023702 -1.6416766822466602 -1.1522202332986267 9.699957935913094" Properties=species:S:1:pos:R:3 unique_starting_index=56 config_type=initial n_minim_iter=14 pbc="T T T"
Si      -1.31493255       4.03361316       7.64019395
Si       0.51378966       4.23184130       0.08435855
Si      -1.06891964       4.61889665       1.84417566
Si      -0.31682668       2.02545380       7.40443098
Si       1.18792981       0.49444694       7.02753573
Si      -0.28358605       2.41635603       1.64152609
6
Lattice="3.4068607619748312 -0.5403283060244789 -0.2290874457006416 -1.4469492911948563 5.493105647106908 -0.012943985996724737 -1.6206978889590071 -1.14761797241026 9.677513251536443" Properties=species:S:1:pos:R:3 unique_starting_index=56 config_type=initial n_minim_iter=15 pbc="T T T"
Si      -1.31176257       4.02352441       7.62460430
Si       0.50415105       4.21837066       0.08501966
Si      -1.07440867       4.60957695       1.83847236
Si      -0.31137382       2.02223767       7.39072682
Si       1.18806016       0.48958069       7.01533047
Si      -0.28510408       2.41200587       1.63645698
