22
Lattice="5.528095101691119 -0.6354392502490328 -1.411730062732715 -2.378091063153392 10.603152310497856 -2.0601419070234512 -4.7429064248789965 -5.207391514585232 10.788321815292196" Properties=species:S:1:pos:R:3 unique_starting_index=18 config_type=initial n_minim_iter=1 energy=-3583.709971313687 free_energy=-3583.709971313687 pbc="T T T"
Si      -0.04287140       9.33668275      -1.05056688
Si      -1.52338081      -1.28700341       5.70688313
Si      -4.10320254      -3.67352222       9.64923551
Si      -0.06941157      -2.84495794       8.71577704
Si      -5.56643305      -0.40783982       8.97110952
Si       4.15399179       2.12928749       0.03891803
Si       2.20033253       0.78286149       0.32908674
Si      -1.53356534       0.36769754       7.03929077
Si      -2.01765131      -3.48029500       9.29028816
Si      -2.67642160       0.99685309       5.35792338
Si       1.13698715      -0.28261430       2.51516670
Si      -2.94361361       3.48660412       5.05405733
Si      -3.30728601      -2.82686609       6.21894250
Si      -0.51033333       6.80089120      -1.11366851
Si       1.02413698       1.42891094       3.81796220
Si       1.20511993       7.82429827      -1.85982555
Si      -0.89091384      -1.32068604       3.28462317
Si       2.38980054      -4.99197409       6.29030745
Si       0.18524817       3.18736374       2.93516836
Si      -2.79995791       2.44701849       6.89995240
Si      -1.51595293       4.34465121       3.45785150
Si      -1.83982709      -2.16695839       7.61517070
22
Lattice="5.528086049585783 -0.6354063777023179 -1.411899940989173 -2.377709691901767 10.604949112252172 -2.0599673371610856 -4.74334506142216 -5.20834570072217 10.788422720581295" Properties=species:S:1:pos:R:3 unique_starting_index=18 config_type=initial n_minim_iter=2 stress="0.0008988217634220313 5.943228543645612e-05 -0.000177911702344827 5.943228543645612e-05 0.0007390006979873613 -0.00028834820320311277 -0.000177911702344827 -0.00028834820320311277 0.0005840850641459166" pbc="T T T"
Si      -0.04254846       9.33834137      -1.05044109
Si      -1.52356336      -1.28708138       5.70701299
Si      -4.10355548      -3.67416855       9.64933156
Si      -0.06969378      -2.84538156       8.71571603
Si      -5.56657735      -0.40795744       8.97128362
Si       4.15395605       2.12976532       0.03882231
Si       2.20033379       0.78301914       0.32916292
Si      -1.53371512       0.36768658       7.03922074
Si      -2.01797681      -3.48079536       9.29035084
Si      -2.67648858       0.99704300       5.35813657
Si       1.13684411      -0.28255204       2.51510708
Si      -2.94370881       3.48722445       5.05406415
Si      -3.30757109      -2.82740898       6.21906503
Si      -0.51002059       6.80210478      -1.11366295
Si       1.02405813       1.42929644       3.81796036
Si       1.20531795       7.82565677      -1.85969984
Si      -0.89105973      -1.32092607       3.28461983
Si       2.38941805      -4.99280000       6.29017158
Si       0.18530910       3.18793276       2.93517473
Si      -2.80007453       2.44729943       6.90002808
Si      -1.51593514       4.34551103       3.45798544
Si      -1.84016266      -2.16741554       7.61514510
22
Lattice="5.5276134826322085 -0.6354086383019654 -1.4118657958992986 -2.3773551872835013 10.605389248042403 -2.059506511350069 -4.743050135571612 -5.20832373827809 10.787710786649004" Properties=species:S:1:pos:R:3 unique_starting_index=18 config_type=initial n_minim_iter=3 stress="5.1134572811076724e-05 9.930744592636424e-05 -0.00026918719174973246 9.930744592636424e-05 0.00014492570620436616 -0.0002464578575574722 -0.00026918719174973246 -0.0002464578575574722 -0.0001139058127271056" pbc="T T T"
Si      -0.04239294       9.33878595      -1.05006083
Si      -1.52346181      -1.28688152       5.70674868
Si      -4.10327984      -3.67407487       9.64872621
Si      -0.06971666      -2.84524398       8.71513610
Si      -5.56608041      -0.40774647       8.97082965
Si       4.15358039       2.12991605       0.03888136
Si       2.20016096       0.78306833       0.32925284
Si      -1.53356960       0.36783427       7.03878490
Si      -2.01786444      -3.48064080       9.28978705
Si      -2.67623981       0.99726156       5.35798247
Si       1.13669477      -0.28242636       2.51494503
Si      -2.94348643       3.48753747       5.05384595
Si      -3.30738214      -2.82740238       6.21869587
Si      -0.50982145       6.80242598      -1.11344030
Si       1.02399108       1.42956075       3.81781000
Si       1.20527005       7.82597901      -1.85928808
Si      -0.89102590      -1.32090782       3.28439440
Si       2.38909829      -4.99286619       6.28966018
Si       0.18536280       3.18817214       2.93511065
Si      -2.79982915       2.44751050       6.89972385
Si      -1.51576300       4.34589131       3.45798205
Si      -1.84009390      -2.16736747       7.61463755
22
Lattice="5.527455320542024 -0.6356037540440267 -1.4116315786586855 -2.3775859628594334 10.605648772957002 -2.0589861730771206 -4.742279679402823 -5.2077045520539285 10.78740810606707" Properties=species:S:1:pos:R:3 unique_starting_index=18 config_type=initial n_minim_iter=4 stress="0.00010973360091718476 -0.00012632485631736292 1.2877507968964622e-06 -0.00012632485631736292 0.0003396241343527445 0.0001911165721742555 1.2877507968964622e-06 0.0001911165721742555 0.00018654805026506346" pbc="T T T"
Si      -0.04256280       9.33903918      -1.04944572
Si      -1.52308066      -1.28644125       5.70677349
Si      -4.10260986      -3.67347144       9.64853133
Si      -0.06913356      -2.84474330       8.71516341
Si      -5.56542987      -0.40708018       8.97076572
Si       4.15345218       2.12992244       0.03928547
Si       2.20014477       0.78306661       0.32950292
Si      -1.53310673       0.36829491       7.03889075
Si      -2.01724408      -3.48007288       9.28973419
Si      -2.67588561       0.99770579       5.35808281
Si       1.13679166      -0.28223879       2.51505452
Si      -2.94325168       3.48803895       5.05401001
Si      -3.30697243      -2.82704298       6.21851810
Si      -0.50993716       6.80259078      -1.11309163
Si       1.02418245       1.42990379       3.81807976
Si       1.20499114       7.82608957      -1.85869405
Si      -0.89081417      -1.32072624       3.28433991
Si       2.38948255      -4.99267977       6.28964794
Si       0.18550183       3.18847065       2.93541586
Si      -2.79942753       2.44804434       6.89991401
Si      -1.51559567       4.34634256       3.45831157
Si      -1.83958777      -2.16694044       7.61459317
22
Lattice="5.527464141576934 -0.635446771772223 -1.411382372980958 -2.377475571178585 10.60533321145816 -2.0592123882648266 -4.7419539761410086 -5.207755557720221 10.787410744002283" Properties=species:S:1:pos:R:3 unique_starting_index=18 config_type=initial n_minim_iter=5 stress="0.00017630257962445475 0.00014374327342074925 0.00021610495193338935 0.00014374327342074925 -7.013667884393335e-06 -0.00012718366597886047 0.00021610495193338935 -0.00012718366597886047 0.0003443789020044994" pbc="T T T"
Si      -0.04236124       9.33880050      -1.04951629
Si      -1.52284244      -1.28638880       5.70681485
Si      -4.10231579      -3.67352029       9.64853774
Si      -0.06872022      -2.84471846       8.71529047
Si      -5.56506218      -0.40727744       8.97068848
Si       4.15353514       2.12995293       0.03950408
Si       2.20023166       0.78307540       0.32967441
Si      -1.53272406       0.36814642       7.03891712
Si      -2.01691468      -3.48008570       9.28984478
Si      -2.67564057       0.99760044       5.35805776
Si       1.13688733      -0.28216077       2.51514961
Si      -2.94301778       3.48784758       5.05388495
Si      -3.30684132      -2.82710422       6.21851036
Si      -0.50982298       6.80238134      -1.11323910
Si       1.02441460       1.42989549       3.81818545
Si       1.20507264       7.82593370      -1.85866945
Si      -0.89071484      -1.32074724       3.28434899
Si       2.38971607      -4.99256527       6.28994012
Si       0.18572358       3.18837842       2.93544924
Si      -2.79908970       2.44780561       6.89984672
Si      -1.51532543       4.34621094       3.45828572
Si      -1.83926723      -2.16701839       7.61465023
22
Lattice="5.527850331803167 -0.6357976993023119 -1.411415584522031 -2.37803951764037 10.605735103469925 -2.0583637944085837 -4.742245739346063 -5.207129531923634 10.786243274175806" Properties=species:S:1:pos:R:3 unique_starting_index=18 config_type=initial n_minim_iter=6 stress="0.0007644782046980825 -0.00032694586761598224 4.597532231463336e-05 -0.00032694586761598224 -0.00026523048999859317 -6.664129758946943e-05 4.597532231463336e-05 -6.664129758946943e-05 -0.00029530104722277087" pbc="T T T"
Si      -0.04266552       9.33912329      -1.04882013
Si      -1.52295049      -1.28577121       5.70619403
Si      -4.10269978      -3.67288156       9.64756065
Si      -0.06862398      -2.84427475       8.71417609
Si      -5.56550023      -0.40661949       8.97008433
Si       4.15354323       2.12980815       0.03961948
Si       2.20038050       0.78297350       0.32982192
Si      -1.53281030       0.36851999       7.03829852
Si      -2.01713548      -3.47962545       9.28889459
Si      -2.67595959       0.99808843       5.35767031
Si       1.13677430      -0.28185152       2.51486003
Si      -2.94358382       3.48841067       5.05357243
Si      -3.30720441      -2.82674917       6.21795421
Si      -0.51012711       6.80245656      -1.11291790
Si       1.02427792       1.43017438       3.81787705
Si       1.20480450       7.82609678      -1.85793595
Si      -0.89084252      -1.32061574       3.28393019
Si       2.38998378      -4.99257381       6.28917115
Si       0.18550377       3.18869831       2.93533083
Si      -2.79957355       2.44828762       6.89928876
Si      -1.51558756       4.34677606       3.45829871
Si      -1.83931695      -2.16669351       7.61383247
22
Lattice="5.527188502939355 -0.6358705995697228 -1.4117840734647635 -2.3771694256974896 10.607579651660538 -2.056891985765997 -4.742458728796303 -5.207078525711897 10.785709834668122" Properties=species:S:1:pos:R:3 unique_starting_index=18 config_type=initial n_minim_iter=7 stress="7.778483471979308e-05 0.00011384670510461008 -0.0002929064673626497 0.00011384670510461008 -0.0002252702845034439 0.00015558253045907017 -0.0002929064673626497 0.00015558253045907017 0.0002779270161148186" pbc="T T T"
Si      -0.04203199       9.34095310      -1.04752437
Si      -1.52302198      -1.28490618       5.70585202
Si      -4.10301850      -3.67254019       9.64722069
Si      -0.06892550      -2.84371670       8.71340731
Si      -5.56518013      -0.40598945       8.97040886
Si       4.15281997       2.13033948       0.03982189
Si       2.20022631       0.78316416       0.33014898
Si      -1.53263384       0.36922270       7.03829849
Si      -2.01762637      -3.47934579       9.28852288
Si      -2.67592951       0.99888169       5.35776781
Si       1.13621139      -0.28110530       2.51468493
Si      -2.94355589       3.48967632       5.05384329
Si      -3.30753361      -2.82677499       6.21789526
Si      -0.50972967       6.80339919      -1.11238163
Si       1.02393391       1.43100975       3.81790078
Si       1.20503443       7.82759107      -1.85674991
Si      -0.89108351      -1.32060865       3.28364409
Si       2.38921399      -4.99285974       6.28861874
Si       0.18537029       3.18982103       2.93561659
Si      -2.79961125       2.44930633       6.89944470
Si      -1.51518384       4.34826924       3.45893854
Si      -1.83933386      -2.16648254       7.61345221
22
Lattice="5.526392737866984 -0.6362133344600367 -1.4109757250897994 -2.3774212393134095 10.610491490398264 -2.05677536675853 -4.740564456497638 -5.208272139494674 10.783549697925746" Properties=species:S:1:pos:R:3 unique_starting_index=18 config_type=initial n_minim_iter=8 stress="-0.00028573433076799725 -0.00025046017084430874 1.560258449872133e-05 -0.00025046017084430874 9.293365853097495e-05 -0.0002090746564121422 1.560258449872133e-05 -0.0002090746564121422 4.44095173963961e-05" pbc="T T T"
Si      -0.04227294       9.34347159      -1.04720679
Si      -1.52210491      -1.28483482       5.70468666
Si      -4.10147731      -3.67330333       9.64532574
Si      -0.06774323      -2.84442883       8.71193463
Si      -5.56336678      -0.40599774       8.96860455
Si       4.15206180       2.13072204       0.04041776
Si       2.20007201       0.78324457       0.33060289
Si      -1.53147128       0.36936522       7.03706785
Si      -2.01626276      -3.48021546       9.28696571
Si      -2.67511336       0.99931012       5.35661333
Si       1.13615810      -0.28083686       2.51439409
Si      -2.94291341       3.49079002       5.05257969
Si      -3.30658185      -2.82744078       6.21677151
Si      -0.51003542       6.80496057      -1.11249486
Si       1.02413214       1.43137384       3.81741144
Si       1.20444215       7.82971708      -1.85613254
Si      -0.89066641      -1.32098144       3.28296371
Si       2.38985537      -4.99432790       6.28814798
Si       0.18549765       3.19077599       2.93518296
Si      -2.79869918       2.44990262       6.89799741
Si      -1.51457421       4.34967168       3.45832737
Si      -1.83803997      -2.16709356       7.61192113
22
Lattice="5.52633120039478 -0.6360478077714785 -1.4106057824642895 -2.3769317914970025 10.611179064144066 -2.0559752912598768 -4.74038427184251 -5.208305143180429 10.781846883334955" Properties=species:S:1:pos:R:3 unique_starting_index=18 config_type=initial n_minim_iter=9 stress="2.1840838274258663e-05 0.0002406987278340594 0.00011322155766329066 0.0002406987278340594 0.00015207776239217272 0.00014435965786802104 0.00011322155766329066 0.00014435965786802104 -0.00044469652467125155" pbc="T T T"
Si      -0.04171605       9.34425510      -1.04642410
Si      -1.52188061      -1.28450170       5.70385065
Si      -4.10133315      -3.67323101       9.64388607
Si      -0.06746139      -2.84414402       8.71079079
Si      -5.56291746      -0.40577671       8.96742871
Si       4.15212231       2.13112044       0.04083173
Si       2.20019737       0.78342197       0.33086557
Si      -1.53100840       0.36975930       7.03627028
Si      -2.01596705      -3.48004820       9.28568250
Si      -2.67484724       0.99961259       5.35595134
Si       1.13616793      -0.28043461       2.51414134
Si      -2.94257757       3.49129704       5.05203354
Si      -3.30656787      -2.82749918       6.21589424
Si      -0.50975439       6.80529754      -1.11209027
Si       1.02436679       1.43180808       3.81711631
Si       1.20482136       7.83041965      -1.85531240
Si      -0.89063179      -1.32096602       3.28245574
Si       2.38994254      -4.99427407       6.28739066
Si       0.18580132       3.19128780       2.93508018
Si      -2.79831209       2.45033316       6.89724480
Si      -1.51409207       4.35029649       3.45819808
Si      -1.83774629      -2.16696745       7.61076182
22
Lattice="5.525860655454458 -0.6363315815506517 -1.4102351794899475 -2.3770069427086375 10.612181670285675 -2.0548413249971835 -4.739323091130932 -5.207680227013071 10.780261279706602" Properties=species:S:1:pos:R:3 unique_starting_index=18 config_type=initial n_minim_iter=10 stress="-0.00021880375836834555 -3.8070714975767494e-05 -2.16199684221825e-05 -3.8070714975767494e-05 -0.00014156144713892122 6.897821959848909e-06 -2.16199684221825e-05 6.897821959848909e-06 -0.00021197920294787785" pbc="T T T"
Si      -0.04164522       9.34526530      -1.04511877
Si      -1.52127023      -1.28344245       5.70289319
Si      -4.10064760      -3.67259645       9.64262228
Si      -0.06690017      -2.84367361       8.70987046
Si      -5.56169291      -0.40476172       8.96660055
Si       4.15151973       2.13121044       0.04161725
Si       2.20020026       0.78334779       0.33160676
Si      -1.53007752       0.37054535       7.03568791
Si      -2.01486722      -3.47943146       9.28453509
Si      -2.67439352       1.00034650       5.35541149
Si       1.13590427      -0.27951327       2.51392033
Si      -2.94246693       3.49230478       5.05150657
Si      -3.30620340      -2.82717662       6.21543796
Si      -0.51008227       6.80528734      -1.11176777
Si       1.02444433       1.43245695       3.81690502
Si       1.20461936       7.83126121      -1.85415352
Si      -0.89047096      -1.32084502       3.28194979
Si       2.39040044      -4.99435048       6.28697000
Si       0.18594218       3.19196057       2.93520196
Si      -2.79792380       2.45109346       6.89674853
Si      -1.51357308       4.35153717       3.45842759
Si      -1.83691883      -2.16662501       7.60942206
22
Lattice="5.525293777024441 -0.6363133744765989 -1.4097789044231681 -2.3764563398083873 10.612653300434136 -2.0533233695304474 -4.738226866226093 -5.206657666059835 10.778769477459765" Properties=species:S:1:pos:R:3 unique_starting_index=18 config_type=initial n_minim_iter=11 stress="-0.0003069311651872081 -8.206687568003057e-06 3.821015711819144e-06 -8.206687568003057e-06 -0.00018702743553826147 4.635428782302815e-05 3.821015711819144e-06 4.635428782302815e-05 -0.00022831469105025648" pbc="T T T"
Si      -0.04101102       9.34604011      -1.04322264
Si      -1.52048328      -1.28188002       5.70181484
Si      -4.09944225      -3.67180005       9.64144013
Si      -0.06628675      -2.84272245       8.70943401
Si      -5.56027457      -0.40367094       8.96589835
Si       4.15114191       2.13152800       0.04288789
Si       2.20030850       0.78349774       0.33240355
Si      -1.52901357       0.37168702       7.03514437
Si      -2.01411488      -3.47862050       9.28381188
Si      -2.67358024       1.00116796       5.35530250
Si       1.13567106      -0.27820601       2.51374769
Si      -2.94190896       3.49339236       5.05130525
Si      -3.30587953      -2.82668596       6.21520192
Si      -0.51002711       6.80492912      -1.11119491
Si       1.02457298       1.43325542       3.81690733
Si       1.20486473       7.83187581      -1.85274261
Si      -0.89025383      -1.32055863       3.28159036
Si       2.39080663      -4.99386537       6.28677119
Si       0.18654566       3.19258432       2.93564771
Si      -2.79720555       2.45191643       6.89648831
Si      -1.51268036       4.35293796       3.45904754
Si      -1.83583710      -2.16589820       7.60818903
22
Lattice="5.525537287597214 -0.6362435340909078 -1.4096549924023059 -2.376240577478157 10.612586570434543 -2.0523819742923086 -4.7383495622157135 -5.205923611548034 10.778087413063242" Properties=species:S:1:pos:R:3 unique_starting_index=18 config_type=initial n_minim_iter=12 stress="-0.0002255827753305327 1.5735965277002133e-05 -3.918189028787522e-06 1.5735965277002133e-05 -0.00012292492685524024 4.932733389496153e-05 -3.918189028787522e-06 4.932733389496153e-05 -0.00013331479627405753" pbc="T T T"
Si      -0.04055093       9.34615799      -1.04199681
Si      -1.52030110      -1.28080180       5.70125318
Si      -4.09947288      -3.67142784       9.64096504
Si      -0.06611360      -2.84212633       8.70943403
Si      -5.56029842      -0.40330107       8.96552727
Si       4.15133548       2.13166122       0.04357748
Si       2.20053941       0.78357479       0.33295174
Si      -1.52886417       0.37240471       7.03473664
Si      -2.01394061      -3.47796303       9.28339717
Si      -2.67362338       1.00162793       5.35523953
Si       1.13560881      -0.27735832       2.51350886
Si      -2.94201474       3.49380454       5.05145112
Si      -3.30625858      -2.82632477       6.21526670
Si      -0.50978877       6.80472795      -1.11082902
Si       1.02488918       1.43350536       3.81694007
Si       1.20505596       7.83196933      -1.85194241
Si      -0.89028355      -1.32034964       3.28147656
Si       2.39112600      -4.99349999       6.28669801
Si       0.18675278       3.19299698       2.93591176
Si      -2.79728610       2.45248035       6.89636049
Si      -1.51220173       4.35366987       3.45944533
Si      -1.83545327      -2.16537654       7.60750824
22
Lattice="5.526138384465954 -0.6362410982239157 -1.4094639779373412 -2.376429488679878 10.612082340454691 -2.0516217435749278 -4.73868099232683 -5.205105505276665 10.776990086559008" Properties=species:S:1:pos:R:3 unique_starting_index=18 config_type=initial n_minim_iter=13 stress="-9.883427182670753e-05 -8.759145664641232e-07 8.434738477983304e-06 -8.759145664641232e-07 -8.861158458096935e-06 -1.7639922631751884e-05 8.434738477983304e-06 -1.7639922631751884e-05 -4.7394310282220775e-05" pbc="T T T"
Si      -0.04032271       9.34572876      -1.04087019
Si      -1.52021260      -1.27986066       5.70037307
Si      -4.09964190      -3.67115989       9.64012805
Si      -0.06575470      -2.84171821       8.70919361
Si      -5.56091389      -0.40286576       8.96446129
Si       4.15163609       2.13153057       0.04414426
Si       2.20088161       0.78366879       0.33337692
Si      -1.52862195       0.37285592       7.03412594
Si      -2.01388951      -3.47734396       9.28272319
Si      -2.67373948       1.00183407       5.35468721
Si       1.13563911      -0.27656971       2.51297538
Si      -2.94247970       3.49406659       5.05104077
Si      -3.30683047      -2.82587721       6.21519953
Si      -0.50961777       6.80435934      -1.11059135
Si       1.02504787       1.43361204       3.81672806
Si       1.20500846       7.83168120      -1.85125874
Si      -0.89035913      -1.32015982       3.28122930
Si       2.39175284      -4.99319620       6.28651453
Si       0.18677233       3.19326673       2.93590860
Si      -2.79770019       2.45274467       6.89605016
Si      -1.51181299       4.35417133       3.45949746
Si      -1.83521169      -2.16498833       7.60635323
22
Lattice="5.52718660945927 -0.636205450988835 -1.409412475704453 -2.376642702412473 10.610650848817485 -2.0502391396569957 -4.7396507356814945 -5.203373783366072 10.775672838943807" Properties=species:S:1:pos:R:3 unique_starting_index=18 config_type=initial n_minim_iter=14 stress="0.00011491733647906661 1.1800604647865534e-06 6.623609797735214e-06 1.1800604647865534e-06 0.00014025539603548334 -1.318037466291536e-05 6.623609797735214e-06 -1.318037466291536e-05 9.464993524995063e-05" pbc="T T T"
Si      -0.04001830       9.34453014      -1.03907900
Si      -1.52036746      -1.27872084       5.69916789
Si      -4.10019902      -3.67023304       9.63917178
Si      -0.06548011      -2.84066909       8.70883202
Si      -5.56200233      -0.40205334       8.96336731
Si       4.15218656       2.13124069       0.04475190
Si       2.20136286       0.78380708       0.33387244
Si      -1.52864140       0.37395888       7.03374194
Si      -2.01428463      -3.47585862       9.28183924
Si      -2.67428469       1.00249783       5.35429090
Si       1.13571659      -0.27557827       2.51221456
Si      -2.94338759       3.49429835       5.05073989
Si      -3.30793526      -2.82492562       6.21509720
Si      -0.50936817       6.80345135      -1.10995895
Si       1.02539786       1.43385146       3.81658720
Si       1.20522174       7.83073148      -1.85020005
Si      -0.89060804      -1.31973508       3.28089250
Si       2.39250054      -4.99221725       6.28612737
Si       0.18678572       3.19348869       2.93602197
Si      -2.79850388       2.45291779       6.89579446
Si      -1.51157101       4.35463270       3.45976840
Si      -1.83533803      -2.16428325       7.60517769
22
Lattice="5.5279045745401865 -0.6359834238081715 -1.4094734596838683 -2.3765322021479633 10.607693930789573 -2.0490226461727588 -4.740552823189168 -5.201102257140639 10.774815094224497" Properties=species:S:1:pos:R:3 unique_starting_index=18 config_type=initial n_minim_iter=15 stress="0.0002253945202150008 1.2023863073079135e-05 4.9384946462210016e-06 1.2023863073079135e-05 0.0001384207667908275 -1.5802438221456985e-05 4.9384946462210016e-06 -1.5802438221456985e-05 0.0001509026811754394" pbc="T T T"
Si      -0.03962162       9.34192909      -1.03739888
Si      -1.52060470      -1.27752303       5.69855926
Si      -4.10041827      -3.66884575       9.63861836
Si      -0.06539651      -2.83934061       8.70863282
Si      -5.56273868      -0.40161786       8.96271399
Si       4.15243635       2.13066966       0.04520048
Si       2.20160875       0.78386434       0.33448318
Si      -1.52880865       0.37490496       7.03344366
Si      -2.01471370      -3.47374244       9.28125685
Si      -2.67459775       1.00275843       5.35390231
Si       1.13574159      -0.27469929       2.51141531
Si      -2.94398540       3.49409624       5.05055045
Si      -3.30911449      -2.82371959       6.21511600
Si      -0.50912383       6.80151631      -1.10931579
Si       1.02541312       1.43382720       3.81662989
Si       1.20574008       7.82880291      -1.84936019
Si      -0.89091126      -1.31921581       3.28058183
Si       2.39301033      -4.99060163       6.28598173
Si       0.18683011       3.19319976       2.93612576
Si      -2.79923951       2.45273406       6.89595027
Si      -1.51140412       4.35444727       3.46004728
Si      -1.83531859      -2.16335805       7.60430877
22
Lattice="5.528548554712516 -0.6357460134795154 -1.409673097665985 -2.3763826540955337 10.605190231960265 -2.0482997548534705 -4.7414066565506054 -5.199314553089144 10.775231842224885" Properties=species:S:1:pos:R:3 unique_starting_index=18 config_type=initial n_minim_iter=16 stress="0.0002925637784201385 2.487213620057147e-05 1.639271210231351e-05 2.487213620057147e-05 0.00021823975044164574 -5.520365715707682e-05 1.639271210231351e-05 -5.520365715707682e-05 0.0001877765146832302" pbc="T T T"
Si      -0.03930923       9.33962612      -1.03589820
Si      -1.52084720      -1.27640591       5.69862012
Si      -4.10048762      -3.66779876       9.63925272
Si      -0.06529426      -2.83858941       8.70942098
Si      -5.56334506      -0.40130276       8.96289580
Si       4.15254500       2.13013740       0.04564968
Si       2.20180421       0.78415889       0.33504016
Si      -1.52879510       0.37553913       7.03387020
Si      -2.01495098      -3.47196332       9.28225682
Si      -2.67488053       1.00300963       5.35393431
Si       1.13574944      -0.27391210       2.51070573
Si      -2.94463533       3.49371739       5.05106233
Si      -3.31043414      -2.82278714       6.21591373
Si      -0.50893854       6.79980223      -1.10892999
Si       1.02547895       1.43376846       3.81718276
Si       1.20645484       7.82720045      -1.84896320
Si      -0.89125091      -1.31888561       3.28056104
Si       2.39357693      -4.98949126       6.28668703
Si       0.18682294       3.19306748       2.93632454
Si      -2.80006905       2.45255834       6.89636293
Si      -1.51135493       4.35450220       3.46048169
Si      -1.83532451      -2.16279912       7.60412223
22
Lattice="5.528538461077889 -0.635786900269266 -1.4101060049666956 -2.376360369712836 10.602586762328974 -2.047382290660914 -4.741643940902187 -5.196946399777487 10.77636025098069" Properties=species:S:1:pos:R:3 unique_starting_index=18 config_type=initial n_minim_iter=17 stress="0.00014429406555348985 2.1552975304520352e-05 1.5919975413893412e-05 2.1552975304520352e-05 0.00016429401008984868 -3.327680564734512e-05 1.5919975413893412e-05 -3.327680564734512e-05 0.0001370683428536275" pbc="T T T"
Si      -0.03929237       9.33697758      -1.03448724
Si      -1.52098640      -1.27523965       5.69903554
Si      -4.10037380      -3.66607781       9.64058313
Si      -0.06540014      -2.83752037       8.71047401
Si      -5.56336273      -0.40043036       8.96393955
Si       4.15232271       2.12951014       0.04631428
Si       2.20166061       0.78438287       0.33545036
Si      -1.52885203       0.37650488       7.03476143
Si      -2.01490976      -3.46989230       9.28357228
Si      -2.67472582       1.00343001       5.35469049
Si       1.13556302      -0.27323610       2.51037448
Si      -2.94496475       3.49366513       5.05215035
Si      -3.31115635      -2.82153486       6.21715835
Si      -0.50879886       6.79811599      -1.10844412
Si       1.02504346       1.43371675       3.81809454
Si       1.20647179       7.82530876      -1.84840600
Si      -0.89144756      -1.31838198       3.28074178
Si       2.39397576      -4.98801620       6.28760614
Si       0.18647228       3.19301559       2.93680804
Si      -2.80071547       2.45264045       6.89732554
Si      -1.51146297       4.35452832       3.46122774
Si      -1.83536304      -2.16198372       7.60454829
22
Lattice="5.5289262649766115 -0.6359729323956369 -1.4105932449044474 -2.3767681885949505 10.5998153342811 -2.0463923073951147 -4.742177278910308 -5.194308443509 10.777424528488591" Properties=species:S:1:pos:R:3 unique_starting_index=18 config_type=initial n_minim_iter=18 stress="5.785035152823476e-05 -7.898118544727873e-06 5.700088289948061e-06 -7.898118544727873e-06 1.492716062703565e-05 6.446598755871666e-06 5.700088289948061e-06 6.446598755871666e-06 6.70235490915944e-05" pbc="T T T"
Si      -0.03960216       9.33420545      -1.03311122
Si      -1.52129109      -1.27404022       5.69962190
Si      -4.10065060      -3.66412069       9.64185714
Si      -0.06554104      -2.83626256       8.71129347
Si      -5.56387783      -0.39932367       8.96499321
Si       4.15245805       2.12878541       0.04705419
Si       2.20164658       0.78453347       0.33572703
Si      -1.52905946       0.37738606       7.03553625
Si      -2.01510517      -3.46780825       9.28480325
Si      -2.67508348       1.00405162       5.35543250
Si       1.13542476      -0.27260608       2.51015979
Si      -2.94565057       3.49371706       5.05308842
Si      -3.31209318      -2.82019178       6.21834876
Si      -0.50884102       6.79632831      -1.10791193
Si       1.02485560       1.43348441       3.81896077
Si       1.20646583       7.82304119      -1.84799540
Si      -0.89167620      -1.31780176       3.28090933
Si       2.39459462      -4.98639162       6.28839860
Si       0.18602818       3.19285468       2.93726228
Si      -2.80168821       2.45269274       6.89852770
Si      -1.51189719       4.35455129       3.46195360
Si      -1.83555770      -2.16095772       7.60482737
22
Lattice="5.529347611714618 -0.6359935333903464 -1.410866367862583 -2.376801982127265 10.598480542293116 -2.0454579009252214 -4.743051232593345 -5.192996899282961 10.776838696464516" Properties=species:S:1:pos:R:3 unique_starting_index=18 config_type=initial n_minim_iter=19 stress="-0.00016331757041895283 9.782604029255205e-07 3.35789458491445e-06 9.782604029255205e-07 -8.086136674212503e-05 2.2955938537788393e-05 3.35789458491445e-06 2.2955938537788393e-05 -0.0001893957634817501" pbc="T T T"
Si      -0.03943020       9.33233594      -1.03211403
Si      -1.52172045      -1.27334175       5.69899027
Si      -4.10088984      -3.66341645       9.64163502
Si      -0.06601139      -2.83572778       8.71052538
Si      -5.56453255      -0.39875058       8.96428571
Si       4.15278062       2.12856066       0.04797053
Si       2.20154006       0.78481316       0.33617502
Si      -1.52914421       0.37802008       7.03478847
Si      -2.01536501      -3.46648486       9.28481040
Si      -2.67538185       1.00451743       5.35520877
Si       1.13518677      -0.27193510       2.50968809
Si      -2.94654673       3.49386738       5.05311520
Si      -3.31388792      -2.82005585       6.21865578
Si      -0.50853393       6.79557890      -1.10742605
Si       1.02468958       1.43358928       3.81901066
Si       1.20689082       7.82195298      -1.84806045
Si      -0.89198523      -1.31763334       3.28049328
Si       2.39502186      -4.98581492       6.28838641
Si       0.18539872       3.19304809       2.93713644
Si      -2.80302255       2.45276117       6.89859185
Si      -1.51188245       4.35556540       3.46164655
Si      -1.83577250      -2.16088291       7.60409915
22
Lattice="5.529685733351909 -0.6360883344777342 -1.4111583777668757 -2.3771035206393334 10.597062926785764 -2.0451451162458474 -4.743537009174804 -5.191840856763178 10.777433920593158" Properties=species:S:1:pos:R:3 unique_starting_index=18 config_type=initial n_minim_iter=20 stress="-0.00023471159975230944 -7.168665666340112e-06 -2.1185269041750207e-05 -7.168665666340112e-06 -0.00015882287903873127 4.000292809941472e-05 -2.1185269041750207e-05 4.000292809941472e-05 -0.00021354387143071845" pbc="T T T"
Si      -0.03951852       9.33063263      -1.03183711
Si      -1.52202509      -1.27308446       5.69914101
Si      -4.10100342      -3.66270436       9.64229803
Si      -0.06614360      -2.83525848       8.71076151
Si      -5.56511907      -0.39840275       8.96464186
Si       4.15293963       2.12819986       0.04839215
Si       2.20145840       0.78466796       0.33661334
Si      -1.52919377       0.37846966       7.03504345
Si      -2.01548241      -3.46547723       9.28576670
Si      -2.67578819       1.00487119       5.35545064
Si       1.13508104      -0.27161081       2.50973755
Si      -2.94707081       3.49386444       5.05363886
Si      -3.31489746      -2.81981786       6.21949486
Si      -0.50843624       6.79474275      -1.10730122
Si       1.02440132       1.43351810       3.81926275
Si       1.20685510       7.82077203      -1.84824274
Si      -0.89214682      -1.31746121       3.28052501
Si       2.39539757      -4.98522092       6.28891617
Si       0.18505162       3.19273437       2.93741084
Si      -2.80390113       2.45269528       6.89902264
Si      -1.51204438       4.35602147       3.46166686
Si      -1.83589663      -2.16054398       7.60402007
22
Lattice="5.529986593257486 -0.6362035390246451 -1.4111039861729942 -2.3777494916427306 10.59469325086078 -2.0451565533008353 -4.743278564763341 -5.190251124750472 10.777900559623406" Properties=species:S:1:pos:R:3 unique_starting_index=18 config_type=initial n_minim_iter=21 stress="-0.00019947923590698206 5.616909468367139e-06 -1.8495145080261588e-05 5.616909468367139e-06 -0.0001995997224535 2.6082759030033103e-05 -1.8495145080261588e-05 2.6082759030033103e-05 -0.00017712423444123218" pbc="T T T"
Si      -0.04001375       9.32826583      -1.03176806
Si      -1.52197468      -1.27264335       5.69912490
Si      -4.10042243      -3.66167262       9.64280135
Si      -0.06550100      -2.83476689       8.71108326
Si      -5.56506839      -0.39807479       8.96469284
Si       4.15303998       2.12757864       0.04897715
Si       2.20141990       0.78422973       0.33720417
Si      -1.52886776       0.37885762       7.03496511
Si      -2.01496154      -3.46414429       9.28694865
Si      -2.67605396       1.00506040       5.35531774
Si       1.13521794      -0.27143171       2.50996175
Si      -2.94730758       3.49366636       5.05403392
Si      -3.31550495      -2.81946456       6.22050680
Si      -0.50843635       6.79325568      -1.10735287
Si       1.02427789       1.43332197       3.81953259
Si       1.20664286       7.81865850      -1.84849518
Si      -0.89209737      -1.31725644       3.28049970
Si       2.39658123      -4.98412313       6.29004389
Si       0.18471424       3.19201623       2.93794439
Si      -2.80443122       2.45256189       6.89934212
Si      -1.51201876       4.35615032       3.46124531
Si      -1.83584007      -2.16042214       7.60399949
