22
Lattice="5.477533723286584 -0.8121016250691078 -1.3560747687600991 -2.701805996167639 10.531730874973734 -2.0303136526138528 -4.409847425716085 -4.9169858972904334 10.76182624475947" Properties=species:S:1:pos:R:3 unique_starting_index=18 config_type=initial n_minim_iter=1 energy=-3582.788560155737 free_energy=-3582.788560155737 pbc="T T T"
Si      -0.16684461       9.07888083      -0.92161718
Si      -1.15789549      -1.18479706       5.65835653
Si      -3.89727779      -3.29097122       9.67398988
Si       0.14092479      -2.54878740       8.70960528
Si      -5.24555283       0.08414494       8.91044050
Si       4.08719661       1.96627116       0.01535794
Si       2.16482079       0.42182344       0.13706039
Si      -1.61722115       0.24786369       7.23241693
Si      -1.81240036      -3.20911871       9.27057838
Si      -2.66544756       1.11334725       5.59198137
Si       1.28920158      -0.39483740       2.48688509
Si      -3.01510967       3.59491143       5.01859197
Si      -3.11784338      -2.37899564       6.24694018
Si      -1.07032189       6.79534334      -0.74064428
Si       0.98063962       1.27332905       3.78264720
Si       0.73263991       7.33512934      -1.72818955
Si      -0.73987343      -1.25080986       3.19011441
Si       2.60452369      -4.86132071       6.28167719
Si       0.19474896       3.02291497       2.83721789
Si      -2.92269608       2.72461942       6.95089770
Si      -1.45041108       4.22390533       3.45636726
Si      -1.58878513      -1.86263527       7.62869843
22
Lattice="5.477881864425068 -0.8086861528394118 -1.3565172219401989 -2.6943815266567697 10.541314533421986 -2.032558120099674 -4.41289597253362 -4.925726765752271 10.771774544166444" Properties=species:S:1:pos:R:3 unique_starting_index=18 config_type=initial n_minim_iter=2 stress="0.009304471260228361 0.0035245670813364833 0.00120481998527928 0.0035245670813364833 0.009987142811443613 -0.0022989267510150633 0.00120481998527928 -0.0022989267510150633 0.012621873517190619" pbc="T T T"
Si      -0.15942538       9.08834226      -0.92254555
Si      -1.15869760      -1.18642830       5.66454149
Si      -3.89906510      -3.29723790       9.68317017
Si       0.14083625      -2.55146576       8.71772294
Si      -5.24387844       0.07917588       8.91895768
Si       4.08960984       1.97161242       0.01663541
Si       2.16548862       0.42420006       0.13800213
Si      -1.61714251       0.24781348       7.23836582
Si      -1.81366940      -3.21316968       9.27984740
Si      -2.66474865       1.11311553       5.59741684
Si       1.28888810      -0.39401240       2.48980185
Si      -3.01184730       3.59707861       5.02278213
Si      -3.11942817      -2.38448229       6.25254450
Si      -1.06513290       6.80236278      -0.74169079
Si       0.98286255       1.27540473       3.78710131
Si       0.73851088       7.34352597      -1.72944861
Si      -0.74067354      -1.25263330       3.19309875
Si       2.60200658      -4.86455067       6.28741947
Si       0.19698146       3.02720036       2.84029753
Si      -2.91975217       2.72481953       6.95736138
Si      -1.44658998       4.22693866       3.45935698
Si      -1.58842950      -1.86605607       7.63633675
22
Lattice="5.468867049800652 -0.8055866079742772 -1.355508692724403 -2.68316805298293 10.53754817967928 -2.0255315014391657 -4.408899231588848 -4.922720834373516 10.760037733134686" Properties=species:S:1:pos:R:3 unique_starting_index=18 config_type=initial n_minim_iter=3 stress="-0.010777654552807972 0.00967029218050036 0.0026976775923501224 0.00967029218050036 -0.0030749372135562675 0.0020454192126874464 0.0026976775923501224 0.0020454192126874464 -0.002050848555421192" pbc="T T T"
Si      -0.15212037       9.08577889      -0.91752983
Si      -1.15878305      -1.18310962       5.66099924
Si      -3.89462977      -3.29396748       9.67365313
Si       0.14020129      -2.54697810       8.70783943
Si      -5.23273684       0.07788737       8.91244742
Si       4.08448068       1.97398437       0.01893551
Si       2.16216342       0.42635628       0.13889265
Si      -1.61616302       0.25203461       7.23001147
Si      -1.81248601      -3.20785035       9.27123110
Si      -2.66070747       1.11526507       5.59385745
Si       1.28514902      -0.39136037       2.48808707
Si      -3.00436498       3.59778845       5.01966388
Si      -3.11585480      -2.38423698       6.24594717
Si      -1.05845904       6.80118537      -0.73841291
Si       0.98340617       1.27792825       3.78558198
Si       0.74260534       7.34173742      -1.72369849
Si      -0.74065820      -1.25117619       3.18960358
Si       2.59443405      -4.85907578       6.27793330
Si       0.19739215       3.03000123       2.83979138
Si      -2.91249143       2.72467819       6.95225905
Si      -1.44089845       4.22606387       3.45787386
Si      -1.58493134      -1.86355685       7.62932490
22
Lattice="5.47601728478375 -0.8151350129234411 -1.3579950387298148 -2.702183732544364 10.54576755298596 -2.0225834897756285 -4.410920067648798 -4.916752574905196 10.756663041389785" Properties=species:S:1:pos:R:3 unique_starting_index=18 config_type=initial n_minim_iter=4 stress="0.0004245872875172644 -0.0025684538819889997 0.0011291997748269032 -0.0025684538819889997 0.0022930456811178705 0.00515295329012761 0.0011291997748269032 0.00515295329012761 -0.005179448865549067" pbc="T T T"
Si      -0.16621758       9.08823448      -0.91707797
Si      -1.16260192      -1.18019330       5.66039238
Si      -3.89831137      -3.28777794       9.67111433
Si       0.14047908      -2.54835302       8.70177675
Si      -5.24059991       0.08504143       8.91193203
Si       4.08465221       1.96751332       0.01766522
Si       2.16305114       0.42361606       0.13817383
Si      -1.62381468       0.25619663       7.22489779
Si      -1.81404005      -3.20444006       9.26786988
Si      -2.66870502       1.12091279       5.59277348
Si       1.28380247      -0.39312334       2.48648253
Si      -3.01624874       3.60438637       5.01822317
Si      -3.11803865      -2.38072296       6.24448608
Si      -1.07017121       6.80555887      -0.73814608
Si       0.98030680       1.27764650       3.78365402
Si       0.73261469       7.34201447      -1.72276750
Si      -0.74157550      -1.25008161       3.18812523
Si       2.60084664      -4.86489965       6.27120523
Si       0.18970884       3.03197681       2.83836477
Si      -2.92326309       2.72939840       6.94975382
Si      -1.45136643       4.22904598       3.45637754
Si      -1.58603846      -1.86184140       7.62628053
22
Lattice="5.47672952979229 -0.8146163144440471 -1.361305851662241 -2.7042739542260827 10.539846090843126 -2.0350465668587288 -4.415975723441389 -4.924332496647147 10.771252841714709" Properties=species:S:1:pos:R:3 unique_starting_index=18 config_type=initial n_minim_iter=5 stress="-0.002249323119635304 -0.0019360307225869287 -0.00047581379968649276 -0.0019360307225869287 -0.005631244588219364 -0.007229768166850201 -0.00047581379968649276 -0.007229768166850201 -0.0014420138845431406" pbc="T T T"
Si      -0.16807443       9.08040189      -0.92920277
Si      -1.16701554      -1.18458401       5.66665838
Si      -3.90324851      -3.29516128       9.68318151
Si       0.13647063      -2.55771234       8.70857420
Si      -5.24546970       0.07520044       8.92084250
Si       4.08345070       1.96408525       0.01337512
Si       2.16240156       0.42289105       0.13680037
Si      -1.62826533       0.24731650       7.22820198
Si      -1.81912893      -3.21181417       9.27817980
Si      -2.67273610       1.11392238       5.59557194
Si       1.28081961      -0.39596524       2.48773951
Si      -3.02057670       3.59612294       5.01784850
Si      -3.12070739      -2.38617992       6.25295687
Si      -1.07185582       6.80049603      -0.74731155
Si       0.97693796       1.27229938       3.78365877
Si       0.73176438       7.33681925      -1.73311578
Si      -0.74361523      -1.25253459       3.19171430
Si       2.59795988      -4.86910620       6.27770824
Si       0.18613069       3.02634431       2.83605554
Si      -2.92818107       2.71858095       6.95166828
Si      -1.45523789       4.22069154       3.45337973
Si      -1.58929638      -1.86947738       7.63379429
22
Lattice="5.479429718361274 -0.816736509877951 -1.3775349695222368 -2.7022244934387953 10.529029653789898 -2.0227430044781487 -4.440727174906502 -4.909826671684639 10.79247606746931" Properties=species:S:1:pos:R:3 unique_starting_index=18 config_type=initial n_minim_iter=6 stress="-0.004652894933702733 -0.0014835802186405859 -0.006078850372205924 -0.0014835802186405859 -0.005909263844095356 0.0008112917577210582 -0.006078850372205924 0.0008112917577210582 0.003804571133762153" pbc="T T T"
Si      -0.16597215       9.06727260      -0.92452428
Si      -1.18678688      -1.17203574       5.68170849
Si      -3.92552699      -3.28106227       9.70499040
Si       0.11962628      -2.55241581       8.71445005
Si      -5.26622229       0.08339316       8.95004072
Si       4.08135391       1.95974803       0.00889043
Si       2.16073837       0.42558575       0.13333626
Si      -1.64171851       0.25027988       7.23695259
Si      -1.84284174      -3.19807022       9.29457227
Si      -2.68698510       1.11600909       5.60549770
Si       1.26778329      -0.39257183       2.48873583
Si      -3.03289607       3.59893687       5.03376131
Si      -3.13328675      -2.38228397       6.26802472
Si      -1.07153409       6.79226619      -0.74535126
Si       0.96324760       1.27796534       3.78852291
Si       0.73691267       7.32475408      -1.73071384
Si      -0.75324396      -1.24770742       3.19633442
Si       2.58275437      -4.85894731       6.27050698
Si       0.17576674       3.02829772       2.84250501
Si      -2.94457485       2.72195973       6.97019022
Si      -1.46727885       4.21625195       3.46274812
Si      -1.60285374      -1.86253441       7.64750219
22
Lattice="5.482594406947501 -0.8163181427506847 -1.3712848328212417 -2.7057500750653305 10.534607792310622 -2.0279105109368456 -4.436068717704314 -4.917780079697882 10.778262873220976" Properties=species:S:1:pos:R:3 unique_starting_index=18 config_type=initial n_minim_iter=7 stress="0.00264435288839109 0.0007273731613081995 0.0002236348996227745 0.0007273731613081995 -0.008201744826673468 -0.0016472871136257645 0.0002236348996227745 -0.0016472871136257645 -0.0016528823511058263" pbc="T T T"
Si      -0.16579605       9.07032396      -0.92891705
Si      -1.18608332      -1.17260678       5.67657556
Si      -3.92083631      -3.28711453       9.69241127
Si       0.12770585      -2.56015980       8.70452568
Si      -5.26304697       0.07861456       8.93630255
Si       4.08431619       1.96019003       0.01249479
Si       2.16223951       0.42735288       0.13502988
Si      -1.63505661       0.24501339       7.22469491
Si      -1.83807130      -3.20349858       9.28390942
Si      -2.68541495       1.11338434       5.59390546
Si       1.26799359      -0.39350361       2.48714184
Si      -3.03063590       3.59839578       5.02334933
Si      -3.13032420      -2.38845966       6.25930028
Si      -1.07236305       6.79540821      -0.75101988
Si       0.96528280       1.27773750       3.78444254
Si       0.73731856       7.32732815      -1.73140666
Si      -0.75232541      -1.24957694       3.19236253
Si       2.58948419      -4.86363785       6.26559311
Si       0.17758408       3.02909460       2.83779878
Si      -2.94081587       2.71888128       6.95678681
Si      -1.46710338       4.21490244       3.45428659
Si      -1.59682962      -1.86818328       7.63834123
22
Lattice="5.476575964525802 -0.8202851852735081 -1.3705624303010693 -2.7085172224739673 10.557741166323975 -2.0330414446711353 -4.4287769046085685 -4.931216119493866 10.776074134416593" Properties=species:S:1:pos:R:3 unique_starting_index=18 config_type=initial n_minim_iter=8 stress="-0.007338654359835135 -0.0025568351829831455 -0.0002084470315289346 -0.0025568351829831455 -0.0010248277399824706 -0.003295318969577716 -0.0002084470315289346 -0.003295318969577716 -0.000285640679100445" pbc="T T T"
Si      -0.17025372       9.08761026      -0.93434279
Si      -1.18708993      -1.17428486       5.67586585
Si      -3.91430094      -3.29678819       9.69042877
Si       0.12914965      -2.57255568       8.70180104
Si      -5.25701858       0.07613958       8.93304730
Si       4.07798715       1.96115451       0.01228784
Si       2.15909939       0.42824974       0.13520014
Si      -1.63100636       0.24061011       7.21917312
Si      -1.83533629      -3.21333777       9.28144235
Si      -2.68472685       1.11415320       5.58849926
Si       1.26397619      -0.39606244       2.48615118
Si      -3.02902808       3.60433788       5.01916063
Si      -3.12482200      -2.39665724       6.25801008
Si      -1.07452841       6.81019769      -0.75648981
Si       0.96251986       1.27847458       3.78240092
Si       0.73337402       7.34039156      -1.73451404
Si      -0.75187895      -1.25308321       3.19156597
Si       2.58893546      -4.87758230       6.26396068
Si       0.17539540       3.03389260       2.83481491
Si      -2.93867043       2.72111269       6.95052113
Si      -1.46987699       4.22086887       3.44951541
Si      -1.59354210      -1.87660870       7.63671431
22
Lattice="5.482167520883394 -0.8182972732980891 -1.374485900643212 -2.705190805016791 10.556833694424443 -2.0292342841134663 -4.443509345166707 -4.9325006171129955 10.773863234406154" Properties=species:S:1:pos:R:3 unique_starting_index=18 config_type=initial n_minim_iter=9 stress="-0.0023352318464043517 0.0011564180609310226 -0.004229295992437973 0.0011564180609310226 -0.0026182431339250084 -0.003241551057155461 -0.004229295992437973 -0.003241551057155461 -0.003744151590961698" pbc="T T T"
Si      -0.16568805       9.08683660      -0.93395851
Si      -1.19595454      -1.17090848       5.67412896
Si      -3.92692489      -3.29808260       9.68921665
Si       0.12133070      -2.57422161       8.69783632
Si      -5.26823834       0.07384560       8.93339605
Si       4.08202089       1.96234023       0.01008062
Si       2.16090868       0.43043027       0.13389985
Si      -1.63554000       0.23919482       7.21468718
Si      -1.84556090      -3.21313158       9.27785312
Si      -2.69322780       1.11424123       5.58608383
Si       1.26049685      -0.39508350       2.48370107
Si      -3.03425695       3.60338593       5.01975479
Si      -3.13284271      -2.39917545       6.25720303
Si      -1.07230466       6.81100716      -0.75619645
Si       0.96102826       1.28021896       3.78030195
Si       0.73953141       7.33971574      -1.73336262
Si      -0.75661651      -1.25282686       3.19063551
Si       2.58451097      -4.87572169       6.25750222
Si       0.17508605       3.03452077       2.83379798
Si      -2.94509943       2.71973097       6.94775568
Si      -1.47458654       4.21999287       3.44876791
Si      -1.60156364      -1.87822614       7.63555055
22
Lattice="5.4821932737528485 -0.8196942990259828 -1.3720640082787547 -2.7101252803194043 10.548172369930812 -2.0294518235903394 -4.434820986524114 -4.923341607454774 10.779270868720998" Properties=species:S:1:pos:R:3 unique_starting_index=18 config_type=initial n_minim_iter=10 stress="-0.003222096373865532 -0.0014392588222709825 0.0014163014712933186 -0.0014392588222709825 -0.0065568288878304366 -0.0014730217380179032 0.0014163014712933186 -0.0014730217380179032 0.0014178709335162826" pbc="T T T"
Si      -0.16871150       9.07835586      -0.93244738
Si      -1.19364973      -1.16510341       5.67794582
Si      -3.91901243      -3.29127748       9.69503694
Si       0.12831858      -2.57055969       8.70662966
Si      -5.26176317       0.07756357       8.93863762
Si       4.08196364       1.95925459       0.01459034
Si       2.16124061       0.43049362       0.13607036
Si      -1.62861191       0.24166208       7.21906902
Si      -1.83793403      -3.20679022       9.28451942
Si      -2.69089483       1.11619582       5.58867943
Si       1.26099580      -0.39400527       2.48668827
Si      -3.03220411       3.60282890       5.02369548
Si      -3.12742645      -2.39517726       6.25986482
Si      -1.07493380       6.80659115      -0.75624708
Si       0.96398371       1.28152866       3.78540877
Si       0.73687382       7.33250979      -1.73121313
Si      -0.75473032      -1.25012668       3.19300038
Si       2.59118901      -4.86992894       6.26342073
Si       0.17701693       3.03327130       2.83837626
Si      -2.94048723       2.72032937       6.95266309
Si      -1.47492139       4.21780178       3.45233271
Si      -1.59537586      -1.87411969       7.64204377
22
Lattice="5.483651638673065 -0.816603537895849 -1.3724525113051522 -2.7048042693097556 10.548028156835771 -2.0295524783575494 -4.440920271209726 -4.92774218295931 10.776302060969595" Properties=species:S:1:pos:R:3 unique_starting_index=18 config_type=initial n_minim_iter=11 stress="-0.00028358538469121567 -3.6336827218313345e-05 0.001457836893226243 -3.6336827218313345e-05 -0.003096598471364405 -0.0030860421660650053 0.001457836893226243 -0.0030860421660650053 -0.0008884841045047145" pbc="T T T"
Si      -0.16352655       9.07804254      -0.93559940
Si      -1.20197620      -1.16121219       5.67336918
Si      -3.92158457      -3.29790534       9.69332589
Si       0.12312147      -2.57592528       8.70878224
Si      -5.26271801       0.07040580       8.93723370
Si       4.08374040       1.96084416       0.01479653
Si       2.16247196       0.43387601       0.13671839
Si      -1.62611388       0.24191231       7.21170172
Si      -1.84161403      -3.21199275       9.28247242
Si      -2.69271632       1.11182931       5.58472031
Si       1.25658212      -0.39304737       2.48422993
Si      -3.03107944       3.60217533       5.02055151
Si      -3.12796476      -2.40032277       6.25778505
Si      -1.07178277       6.81058563      -0.75921660
Si       0.96293917       1.28416570       3.78356105
Si       0.74323302       7.33413040      -1.72950563
Si      -0.75841774      -1.25016325       3.19334350
Si       2.58929082      -4.86965215       6.26184378
Si       0.17996059       3.03480906       2.83932294
Si      -2.93902268       2.71693340       6.94993352
Si      -1.47669834       4.21620704       3.45020010
Si      -1.59881281      -1.87632042       7.63790958
22
Lattice="5.488114142353905 -0.8101912905924016 -1.3716013415954913 -2.6954303445523955 10.525862745146746 -2.0180490907960777 -4.447924928582272 -4.912587556544956 10.769939879110073" Properties=species:S:1:pos:R:3 unique_starting_index=18 config_type=initial n_minim_iter=12 stress="0.004758196191687371 0.000918897130952309 0.0015503606692055672 0.000918897130952309 0.004944431613726296 0.0008998254708299879 0.0015503606692055672 0.0008998254708299879 0.0024074893990356535" pbc="T T T"
Si      -0.15704273       9.06674131      -0.92787902
Si      -1.21711559      -1.14805331       5.66284340
Si      -3.92245051      -3.29357614       9.69176492
Si       0.11754611      -2.56921484       8.71982510
Si      -5.26309875       0.07053338       8.94222549
Si       4.09014458       1.96109264       0.02226060
Si       2.16552540       0.43660772       0.14576312
Si      -1.61423424       0.25801660       7.20789420
Si      -1.84139576      -3.20164532       9.27510386
Si      -2.69463043       1.10983609       5.58222403
Si       1.25001211      -0.38625069       2.48072562
Si      -3.02600288       3.60038638       5.02366025
Si      -3.12695856      -2.39807758       6.25068710
Si      -1.06562781       6.80276650      -0.75991140
Si       0.96681087       1.29122412       3.78613956
Si       0.75938213       7.31815533      -1.71787314
Si      -0.76471221      -1.24315343       3.19604921
Si       2.59026789      -4.85329633       6.26098805
Si       0.18704728       3.04029792       2.84955984
Si      -2.93081779       2.71427830       6.95005656
Si      -1.47566615       4.21110746       3.45460960
Si      -1.59769900      -1.86334723       7.63007467
22
Lattice="5.497308546068818 -0.8075264943645587 -1.3748158069300656 -2.6936657160564863 10.518880627243385 -2.013929696308837 -4.465056058984197 -4.911206773101716 10.764987732890958" Properties=species:S:1:pos:R:3 unique_starting_index=18 config_type=initial n_minim_iter=13 stress="0.005973615431385531 0.0011541112613115993 1.2266425493299925e-05 0.0011541112613115993 0.008775545833494748 0.004078813526455222 1.2266425493299925e-05 0.004078813526455222 0.004094486817337186" pbc="T T T"
Si      -0.15572471       9.06151893      -0.92891242
Si      -1.23450654      -1.14514887       5.65171632
Si      -3.93411687      -3.29781262       9.68945373
Si       0.11013402      -2.57119336       8.71857630
Si      -5.27724171       0.06507045       8.94436008
Si       4.09586181       1.95999963       0.02286775
Si       2.16946491       0.44092096       0.14709267
Si      -1.61319057       0.26663533       7.20352363
Si      -1.85429390      -3.20431837       9.27113055
Si      -2.70545959       1.10528702       5.57596627
Si       1.24441992      -0.38406586       2.47461021
Si      -3.03196623       3.59775814       5.02187470
Si      -3.13419630      -2.40124243       6.24434906
Si      -1.06393909       6.80222964      -0.76512233
Si       0.96920083       1.29019634       3.78405992
Si       0.76818646       7.31436778      -1.71342489
Si      -0.77276693      -1.24116577       3.19770890
Si       2.58644084      -4.85426254       6.25515117
Si       0.18833009       3.04568798       2.84926246
Si      -2.93545652       2.71009987       6.94588275
Si      -1.48236552       4.21154425       3.45474119
Si      -1.60343305      -1.86173878       7.62209777
22
Lattice="5.508222570407653 -0.7985531209037526 -1.3736149885070796 -2.6822986645410274 10.510987633923108 -2.009436005411949 -4.490110833011475 -4.921196311428368 10.728265778606954" Properties=species:S:1:pos:R:3 unique_starting_index=18 config_type=initial n_minim_iter=14 stress="0.0073763623220711744 -0.0003496750652146579 -0.0009009915628133481 -0.0003496750652146579 0.010801428406859066 0.004389965122578621 -0.0009009915628133481 0.004389965122578621 0.0010378858160410575" pbc="T T T"
Si      -0.14891573       9.05521134      -0.93447859
Si      -1.26675170      -1.14204091       5.61906551
Si      -3.95047333      -3.31581226       9.66077271
Si       0.10062478      -2.58283832       8.69255479
Si      -5.29362044       0.04228648       8.92101785
Si       4.10252837       1.96081695       0.02635752
Si       2.17379268       0.44926334       0.15513583
Si      -1.60240143       0.27639957       7.17181141
Si      -1.86952507      -3.21024045       9.23426391
Si      -2.71305475       1.08632039       5.54829167
Si       1.23317155      -0.38140345       2.45606936
Si      -3.03680119       3.58826811       4.99992294
Si      -3.14208090      -2.41556148       6.21503346
Si      -1.05463602       6.80862987      -0.77877611
Si       0.97295851       1.29164969       3.76929471
Si       0.78649838       7.31325499      -1.70344717
Si      -0.78693289      -1.24051193       3.19378424
Si       2.57518450      -4.86448913       6.23051770
Si       0.19336586       3.05867828       2.83929786
Si      -2.93484343       2.69683379       6.91847680
Si      -1.48897918       4.21276783       3.44272451
Si      -1.60828738      -1.87035058       7.59172518
22
Lattice="5.516946655568074 -0.7854389824371175 -1.3720928810088193 -2.6641249635907744 10.492138181834465 -2.0069278142362688 -4.512991161204755 -4.928032549971972 10.703781297635032" Properties=species:S:1:pos:R:3 unique_starting_index=18 config_type=initial n_minim_iter=15 stress="0.007161350813767267 0.0008986245777360011 -0.0016505773722450315 0.0008986245777360011 0.006761523261201962 0.0016209128591172413 -0.0016505773722450315 0.0016209128591172413 -0.0005544344571545525" pbc="T T T"
Si      -0.13836757       9.04482377      -0.93672561
Si      -1.29435211      -1.13802587       5.59968213
Si      -3.96378675      -3.32946340       9.64249475
Si       0.09427587      -2.59052723       8.67546961
Si      -5.30399244       0.01897078       8.90577641
Si       4.10954545       1.96308258       0.03171064
Si       2.17855164       0.46082641       0.16057280
Si      -1.58995016       0.28096747       7.14963579
Si      -1.88421568      -3.21347236       9.21245133
Si      -2.71775362       1.06997432       5.52973397
Si       1.22402171      -0.37792487       2.44215901
Si      -3.03795141       3.57489646       4.98125959
Si      -3.14787245      -2.42797915       6.19544114
Si      -1.04330446       6.80693089      -0.78912599
Si       0.97968587       1.29599642       3.75975340
Si       0.81301660       7.30265436      -1.69878191
Si      -0.79912076      -1.23926805       3.19272517
Si       2.56364639      -4.86561528       6.21418778
Si       0.20036628       3.06824859       2.83449441
Si      -2.92935902       2.67685422       6.90208620
Si      -1.49011174       4.20768319       3.43445189
Si      -1.61362606      -1.87618582       7.56846071
22
Lattice="5.519560840938909 -0.7766960261884174 -1.376171587208371 -2.6469169545324793 10.478219746382104 -1.9978839614665826 -4.530679348748379 -4.924255452611607 10.702643047681486" Properties=species:S:1:pos:R:3 unique_starting_index=18 config_type=initial n_minim_iter=16 stress="0.0060662076949510365 0.000745578693746068 -0.0015285436313532074 0.000745578693746068 0.007408892748614567 0.0045299190404198995 -0.0015285436313532074 0.0045299190404198995 0.0030433748970338306" pbc="T T T"
Si      -0.12855102       9.03431313      -0.93117669
Si      -1.31123681      -1.13416259       5.59420632
Si      -3.97350461      -3.32953870       9.64428915
Si       0.08472100      -2.58855232       8.67341451
Si      -5.30800629       0.01148311       8.91231554
Si       4.11069173       1.96565448       0.03578097
Si       2.17998341       0.47163413       0.16307216
Si      -1.58710091       0.29127809       7.15318714
Si      -1.89708787      -3.20653023       9.20933571
Si      -2.72016196       1.06524049       5.52896805
Si       1.21651436      -0.37310776       2.43696526
Si      -3.03705870       3.56917631       4.98390785
Si      -3.15123508      -2.43169082       6.19450565
Si      -1.03143835       6.80342001      -0.79117383
Si       0.97997887       1.30512600       3.75902916
Si       0.83038318       7.29675488      -1.69174920
Si      -0.80749613      -1.23634400       3.19617639
Si       2.55399272      -4.85748430       6.21052088
Si       0.20377835       3.07744146       2.83969714
Si      -2.92590330       2.66878164       6.90380200
Si      -1.49214214       4.20537204       3.43795652
Si      -1.62140953      -1.87362119       7.56433155
22
Lattice="5.524058149190754 -0.7689291915411196 -1.384145914389751 -2.6348309169072732 10.453896962581545 -1.9977980460427742 -4.553709772214963 -4.921575425064452 10.71408327769968" Properties=species:S:1:pos:R:3 unique_starting_index=18 config_type=initial n_minim_iter=17 stress="-0.0004538781899391374 -0.0011142304627198398 -0.00029019509586291346 -0.0011142304627198398 0.00264247337905099 0.0006884436565783384 -0.00029019509586291346 0.0006884436565783384 0.002794423091411883" pbc="T T T"
Si      -0.12655370       9.01117020      -0.93511264
Si      -1.33388870      -1.12985785       5.59707778
Si      -3.98687082      -3.33341323       9.65655417
Si       0.06611870      -2.59442294       8.67729152
Si      -5.31768614      -0.00411523       8.92795046
Si       4.10809104       1.96199636       0.03561769
Si       2.18093198       0.48429464       0.16477822
Si      -1.59061560       0.29299586       7.15842520
Si      -1.91111890      -3.20204864       9.21442787
Si      -2.73023617       1.05370391       5.52713358
Si       1.20481057      -0.36935640       2.43282453
Si      -3.03940710       3.55643305       4.98784852
Si      -3.15803070      -2.43980126       6.19954841
Si      -1.02091201       6.79127741      -0.80311182
Si       0.97788685       1.30670599       3.75720758
Si       0.84490141       7.28186079      -1.69259029
Si      -0.81846329      -1.23457259       3.20391854
Si       2.54467898      -4.85114666       6.21377291
Si       0.20322065       3.08306344       2.84420399
Si      -2.92800888       2.65251287       6.90910222
Si      -1.50404615       4.19547817       3.44003031
Si      -1.62745323      -1.86934405       7.56564585
22
Lattice="5.5278897524609 -0.7641815318326822 -1.392434099965386 -2.6271443638603 10.43341215096291 -1.996129509453569 -4.572544934446414 -4.915342575042176 10.72972034377872" Properties=species:S:1:pos:R:3 unique_starting_index=18 config_type=initial n_minim_iter=18 stress="-0.003700416905038012 -0.0013537343904292123 0.0003267456216169201 -0.0013537343904292123 -0.00037987454888904163 -0.0021354612470658304 0.0003267456216169201 -0.0021354612470658304 0.0012880057594484267" pbc="T T T"
Si      -0.12653329       8.99403340      -0.93658261
Si      -1.34667413      -1.12434323       5.60178678
Si      -3.99666089      -3.33173991       9.67078187
Si       0.05186164      -2.59586595       8.68568371
Si      -5.32827969      -0.00956046       8.94428931
Si       4.10763471       1.95917049       0.03405457
Si       2.18201039       0.49190761       0.16422174
Si      -1.59905320       0.29303545       7.16565285
Si      -1.92650586      -3.19559848       9.22542171
Si      -2.73679859       1.04691560       5.53425215
Si       1.19713775      -0.36589681       2.43283801
Si      -3.04196244       3.54717395       4.99782324
Si      -3.16582019      -2.44249259       6.20827301
Si      -1.01344582       6.77888426      -0.80898821
Si       0.97390426       1.30682899       3.75788764
Si       0.85401735       7.26812427      -1.69429906
Si      -0.82581043      -1.23286772       3.21069737
Si       2.53568961      -4.84522528       6.21750462
Si       0.19994577       3.08602373       2.84935706
Si      -2.93291413       2.64274518       6.91690997
Si      -1.51183755       4.18882817       3.44555927
Si      -1.63624079      -1.86411846       7.57599313
22
Lattice="5.537213832468401 -0.7597736811815448 -1.403369588829111 -2.620499153178743 10.406752214263374 -1.985350583386574 -4.598710942805243 -4.898087048205921 10.746783198074601" Properties=species:S:1:pos:R:3 unique_starting_index=18 config_type=initial n_minim_iter=19 stress="-0.006791178890165391 -1.0033186157971442e-05 0.0017146381077641644 -1.0033186157971442e-05 -0.003785448551565136 -0.0033198430574491746 0.0017146381077641644 -0.0033198430574491746 -0.000934363849612603" pbc="T T T"
Si      -0.12799858       8.97145987      -0.93233757
Si      -1.35920297      -1.11500988       5.61109213
Si      -4.01315828      -3.32059478       9.68670175
Si       0.03692067      -2.59235850       8.69682798
Si      -5.34568593      -0.00579067       8.96218144
Si       4.11143208       1.95637030       0.03357671
Si       2.18529315       0.50098426       0.16461464
Si      -1.61212376       0.29615444       7.17868753
Si      -1.94424608      -3.17720843       9.23638655
Si      -2.74834001       1.04410234       5.54466418
Si       1.18938614      -0.35901774       2.43451596
Si      -3.04713856       3.53925328       5.01394065
Si      -3.17585212      -2.43983241       6.22038681
Si      -1.00378063       6.76292302      -0.80991033
Si       0.97301839       1.30941813       3.76020305
Si       0.86274790       7.25263667      -1.68987901
Si      -0.83430665      -1.22893668       3.21834344
Si       2.52621637      -4.83528438       6.21914424
Si       0.19418667       3.09369052       2.85877404
Si      -2.94137908       2.63679377       6.93203776
Si      -1.52230274       4.18615542       3.45770531
Si      -1.65337003      -1.84893551       7.58469171
22
Lattice="5.548464961059893 -0.7585536916583542 -1.4146917033421353 -2.6179979789192607 10.384803799587706 -1.966113494193197 -4.626935704080721 -4.875794590272407 10.75028981727596" Properties=species:S:1:pos:R:3 unique_starting_index=18 config_type=initial n_minim_iter=20 stress="-0.0045944770739481675 -7.994785750678472e-05 0.001672024907256213 -7.994785750678472e-05 -0.005026359862929699 -0.0018348495861152333 0.001672024907256213 -0.0018348495861152333 -0.0019781177625723787" pbc="T T T"
Si      -0.13392909       8.95264819      -0.92349289
Si      -1.36974340      -1.10484090       5.61345650
Si      -4.03161274      -3.30487455       9.68982533
Si       0.01960597      -2.58365907       8.69529953
Si      -5.37039122       0.00161826       8.96870153
Si       4.11622587       1.95360578       0.03226853
Si       2.18941971       0.51013276       0.16350542
Si      -1.62729794       0.30233626       7.18781395
Si      -1.96535706      -3.15551059       9.23298225
Si      -2.76241171       1.04712546       5.55123365
Si       1.18216415      -0.35202669       2.43282517
Si      -3.05418314       3.53842540       5.02384013
Si      -3.18891535      -2.43451541       6.22378633
Si      -0.99883887       6.75057346      -0.80411442
Si       0.96929501       1.31478169       3.75820558
Si       0.87012663       7.24220495      -1.68081843
Si      -0.84284880      -1.22447689       3.22156236
Si       2.51922549      -4.82534492       6.21416078
Si       0.18539320       3.10448616       2.86672739
Si      -2.95330373       2.63326602       6.94368154
Si      -1.53623617       4.18901156       3.46876172
Si      -1.66923472      -1.82944007       7.58761564
22
Lattice="5.55472986764912 -0.7502987454824618 -1.4166668994956866 -2.6025480769620915 10.39204845564743 -1.9626318388238069 -4.648526607196709 -4.890072012286668 10.737608563427617" Properties=species:S:1:pos:R:3 unique_starting_index=18 config_type=initial n_minim_iter=21 stress="-0.0016280672206320467 0.00073521996982276 0.0017529244268719591 0.00073521996982276 -0.003094073750358851 -0.0012072457460872276 0.0017529244268719591 -0.0012072457460872276 -0.002081183990578411" pbc="T T T"
Si      -0.12925013       8.96276341      -0.92753571
Si      -1.37431292      -1.10724690       5.60516457
Si      -4.04672697      -3.31872144       9.67698393
Si       0.00824215      -2.59368824       8.68139206
Si      -5.38257146      -0.01193961       8.95505223
Si       4.12217839       1.96205960       0.03020587
Si       2.19378738       0.52199206       0.16332911
Si      -1.63427160       0.29803524       7.18122918
Si      -1.97816064      -3.16252923       9.21995344
Si      -2.76853223       1.03890653       5.54124383
Si       1.17745049      -0.34977805       2.42729095
Si      -3.05309539       3.53247393       5.01799043
Si      -3.19803061      -2.44956663       6.21593628
Si      -0.98668208       6.75515866      -0.80919625
Si       0.97295521       1.32408899       3.74838524
Si       0.88598248       7.25644050      -1.68003514
Si      -0.84933126      -1.23000064       3.21947314
Si       2.51160648      -4.83506679       6.20939517
Si       0.18289854       3.11839377       2.86588100
Si      -2.95408861       2.62597060       6.93604516
Si      -1.53928135       4.19525693       3.46425362
Si      -1.67883722      -1.83190970       7.57896234
