18
Lattice="4.489480526309349 0.0 0.0 0.0 11.686440962318658 -8.164454877591366e-16 0.0 6.884857503643385e-16 9.854850318438132" Properties=species:S:1:pos:R:3 unique_starting_index=36 config_type=initial n_minim_iter=1 energy=-2927.5715035051003 free_energy=-2927.5715035051003 pbc="T T T"
Si       4.45040821      11.27993216       8.54778141
Si       0.03907231      11.27993216       1.30706891
Si       2.28381258      11.27993216       3.62035625
Si       2.20566795      11.27993216       6.23449407
Si       0.05505087       2.10571754       1.78947989
Si       4.43442966       2.10571754       8.06537043
Si       2.18968940       2.10571754       6.71690505
Si       2.29979113       2.10571754       3.13794527
Si       0.55933413       8.63647211       2.14617034
Si       3.93014639       8.63647211       7.70867998
Si       1.68540613       8.63647211       7.07359550
Si       2.80407440       8.63647211       2.78125482
Si       2.28600168       0.58031178       1.22938243
Si       2.20347884       0.58031178       8.62546788
Si      -0.04126142       0.58031178       6.15680759
Si       4.53074194       0.58031178       3.69804273
Si      -0.00000000       9.37037268      -0.00000000
Si       2.24474026       9.37037268       4.92742516
18
Lattice="4.515079292543109 0.0 0.0 0.0 11.670401998087206 -8.150947911170398e-16 0.0 6.880269348027801e-16 9.84550461276522" Properties=species:S:1:pos:R:3 unique_starting_index=36 config_type=initial n_minim_iter=2 stress="0.0044106015442467675 2.2865572678652138e-17 5.992100427217684e-17 2.2865572678652138e-17 0.0021278243443499873 -5.661890430739616e-18 5.992100427217684e-17 -5.661890430739616e-18 0.0008753424430750583" pbc="T T T"
Si       4.47690443      11.26691212       8.53800275
Si       0.03817486      11.26691212       1.30750186
Si       2.29571451      11.26691212       3.61525044
Si       2.21936479      11.26691212       6.23025417
Si       0.05517727       2.10159669       1.78734972
Si       4.45990203       2.10159669       8.05815489
Si       2.20236238       2.10159669       6.71010203
Si       2.31271691       2.10159669       3.13540259
Si       0.56071384       8.62412254       2.14292251
Si       3.95436546       8.62412254       7.70258210
Si       1.69682581       8.62412254       7.06567482
Si       2.81825348       8.62412254       2.77982979
Si       2.29908996       0.57952774       1.22646225
Si       2.21598933       0.57952774       8.61904236
Si      -0.04155031       0.57952774       6.14921456
Si       4.55662960       0.57952774       3.69629005
Si      -0.00000000       9.35602030      -0.00000000
Si       2.25753965       9.35602030       4.92275231
18
Lattice="4.521553059843619 0.0 0.0 0.0 11.601376024057613 -8.090416526616305e-16 0.0 6.869684376052347e-16 9.81544375566948" Properties=species:S:1:pos:R:3 unique_starting_index=36 config_type=initial n_minim_iter=3 stress="0.001702994643767375 5.692847804170495e-17 1.307777801319368e-16 5.692847804170495e-17 -0.001836651205720149 6.619428982490425e-17 1.307777801319368e-16 6.619428982490425e-17 -0.006281340735704883" pbc="T T T"
Si       4.48567740      11.20539639       8.50858171
Si       0.03587566      11.20539639       1.30686205
Si       2.29665219      11.20539639       3.60085983
Si       2.22490087      11.20539639       6.21458393
Si       0.05486461       2.08651799       1.78102097
Si       4.46668845       2.08651799       8.03442278
Si       2.20591192       2.08651799       6.68874285
Si       2.31564114       2.08651799       3.12670090
Si       0.55776136       8.57212273       2.13396269
Si       3.96379170       8.57212273       7.68148106
Si       1.70301517       8.57212273       7.04168457
Si       2.81853789       8.57212273       2.77375919
Si       2.30248591       0.57600450       1.21915755
Si       2.21906715       0.57600450       8.59628621
Si      -0.04170938       0.57600450       6.12687942
Si       4.56326244       0.57600450       3.68856433
Si      -0.00000000       9.29790656      -0.00000000
Si       2.26077653       9.29790656       4.90772188
18
Lattice="4.522071133198628 0.0 0.0 0.0 11.520668245784096 -8.065551729729445e-16 0.0 6.886940043296761e-16 9.878797294951461" Properties=species:S:1:pos:R:3 unique_starting_index=36 config_type=initial n_minim_iter=4 stress="0.001517142807778892 -1.0966556367538896e-17 7.442351717394666e-17 -1.0966556367538896e-17 -0.003921911371414254 6.060557158003668e-17 7.442351717394666e-17 6.060557158003668e-17 0.0012519091211690124" pbc="T T T"
Si       4.49091249      11.13751201       8.55679008
Si       0.03115865      11.13751201       1.32200722
Si       2.29219421      11.13751201       3.61739143
Si       2.22987692      11.13751201       6.26140586
Si       0.05408316       2.06714859       1.79062171
Si       4.46798798       2.06714859       8.08817558
Si       2.20695241       2.06714859       6.73002036
Si       2.31511872       2.06714859       3.14877694
Si       0.55021742       8.51032022       2.14321396
Si       3.97185371       8.51032022       7.73558334
Si       1.71081815       8.51032022       7.08261260
Si       2.81125299       8.51032022       2.79618469
Si       2.30287278       0.57162064       1.21967712
Si       2.21919836       0.57162064       8.65912018
Si      -0.04183721       0.57162064       6.15907576
Si       4.56390834       0.57162064       3.71972153
Si      -0.00000000       9.22788457      -0.00000000
Si       2.26103557       9.22788457       4.93939865
18
Lattice="4.5022697409413945 0.0 0.0 0.0 11.630472928177111 -8.140364263627168e-16 0.0 6.881430940531338e-16 9.868769870809967" Properties=species:S:1:pos:R:3 unique_starting_index=36 config_type=initial n_minim_iter=5 stress="-0.0004409207864548251 8.500634816913775e-17 1.5576013999389844e-17 8.500634816913775e-17 0.00021917960395731055 -7.659204077229764e-17 1.5576013999389844e-17 -7.659204077229764e-17 -0.0007315829356338356" pbc="T T T"
Si       4.47638358      11.25349372       8.54126894
Si       0.02588616      11.25349372       1.32750093
Si       2.27702103      11.25349372       3.60688400
Si       2.22524871      11.25349372       6.26188587
Si       0.05280396       2.08299323       1.78643110
Si       4.44946578       2.08299323       8.08233877
Si       2.19833091       2.08299323       6.72081604
Si       2.30393883       2.08299323       3.14795383
Si       0.53863680       8.58873590       2.13604903
Si       3.96363294       8.58873590       7.73272084
Si       1.71249807       8.58873590       7.07043397
Si       2.78977167       8.58873590       2.79833590
Si       2.29247686       0.57648846       1.20947131
Si       2.20979288       0.57648846       8.65929856
Si      -0.04134199       0.57648846       6.14385625
Si       4.54361173       0.57648846       3.72491362
Si      -0.00000000       9.31044859      -0.00000000
Si       2.25113487       9.31044859       4.93438494
18
Lattice="4.508637403547177 0.0 0.0 0.0 11.592613325499098 -8.123192272452468e-16 0.0 6.895395504688771e-16 9.89986216215567" Properties=species:S:1:pos:R:3 unique_starting_index=36 config_type=initial n_minim_iter=6 stress="0.0015052826435145593 4.932010858691484e-17 4.870575495288971e-17 4.932010858691484e-17 -2.4885126751877098e-05 2.1986316022882038e-17 4.870575495288971e-17 2.1986316022882038e-17 0.0032144541484901814" pbc="T T T"
Si       4.49010417      11.22072408       8.56566567
Si       0.01853323      11.22072408       1.33419650
Si       2.27285193      11.22072408       3.61573458
Si       2.23578547      11.22072408       6.28412758
Si       0.04939278       2.07326948       1.79129146
Si       4.45924462       2.07326948       8.10857070
Si       2.20492592       2.07326948       6.74122254
Si       2.30371148       2.07326948       3.15863962
Si       0.51514249       8.55304047       2.13750972
Si       3.99349491       8.55304047       7.76235244
Si       1.73917621       8.55304047       7.08744080
Si       2.76946119       8.55304047       2.81242136
Si       2.28876989       0.57426079       1.19910034
Si       2.21986752       0.57426079       8.70076182
Si      -0.03445118       0.57426079       6.14903142
Si       4.54308859       0.57426079       3.75083074
Si      -0.00000000       9.29447866      -0.00000000
Si       2.25431870       9.29447866       4.94993108
18
Lattice="4.50735859948672 0.0 0.0 0.0 11.590002195485834 -8.125762276683201e-16 0.0 6.897736442269948e-16 9.90849825791672" Properties=species:S:1:pos:R:3 unique_starting_index=36 config_type=initial n_minim_iter=7 stress="0.0008725556239677931 5.3089586458195804e-17 3.82855581890659e-17 5.3089586458195804e-17 -0.00021214565699381076 7.591346469026056e-17 3.82855581890659e-17 7.591346469026056e-17 0.00323521054421126" pbc="T T T"
Si       4.49737121      11.21698077       8.57365946
Si       0.00998739      11.21698077       1.33483879
Si       2.26366669      11.21698077       3.61941034
Si       2.24369191      11.21698077       6.28908792
Si       0.04375171       2.07081038       1.79408553
Si       4.46360689       2.07081038       8.11441273
Si       2.20992759       2.07081038       6.74833466
Si       2.29743101       2.07081038       3.16016360
Si       0.47963313       8.53988664       2.13422145
Si       4.02772547       8.53988664       7.77427681
Si       1.77404617       8.53988664       7.08847058
Si       2.73331243       8.53988664       2.82002768
Si       2.27685108       0.57516646       1.18669830
Si       2.23050752       0.57516646       8.72179995
Si      -0.02317178       0.57516646       6.14094743
Si       4.53053038       0.57516646       3.76755082
Si      -0.00000000       9.31918593      -0.00000000
Si       2.25367930       9.31918593       4.95424913
18
Lattice="4.506840711209526 0.0 0.0 0.0 11.611548734963042 -8.140734570428652e-16 0.0 6.891997926242488e-16 9.900241476207926" Properties=species:S:1:pos:R:3 unique_starting_index=36 config_type=initial n_minim_iter=8 stress="0.00024076097320109108 6.687357488310219e-18 9.021612725749432e-17 6.687357488310219e-18 2.577784288175137e-05 1.9054282365864993e-16 9.021612725749432e-17 1.9054282365864993e-16 0.0012752401645345357" pbc="T T T"
Si       4.50454334      11.23556010       8.56755585
Si       0.00229737      11.23556010       1.33268563
Si       2.25571773      11.23556010       3.61743511
Si       2.25112298      11.23556010       6.28280637
Si       0.03742056       2.07194015       1.79535407
Si       4.46942015       2.07194015       8.10488741
Si       2.21599979       2.07194015       6.74547481
Si       2.29084092       2.07194015       3.15476667
Si       0.44376283       8.54512198       2.12794305
Si       4.06307788       8.54512198       7.77229843
Si       1.80965752       8.54512198       7.07806379
Si       2.69718319       8.54512198       2.82217769
Si       2.26598750       0.57919075       1.18022885
Si       2.24085321       0.57919075       8.72001262
Si      -0.01256714       0.57919075       6.13034959
Si       4.51940786       0.57919075       3.76989189
Si      -0.00000000       9.36187000      -0.00000000
Si       2.25342036       9.36187000       4.95012074
18
Lattice="4.506295788491065 0.0 0.0 0.0 11.666068867469214 -8.175564806816679e-16 0.0 6.881402349828147e-16 9.88129146757842" Properties=species:S:1:pos:R:3 unique_starting_index=36 config_type=initial n_minim_iter=9 stress="-0.0007694741523138456 7.346135017178337e-17 1.0440393250953426e-16 7.346135017178337e-17 0.00021509381519886335 3.415396107847541e-16 1.0440393250953426e-16 3.415396107847541e-16 -0.002278186750609403" pbc="T T T"
Si       4.52004433      11.28795800       8.55027807
Si      -0.01374854      11.28795800       1.33101340
Si       2.23939935      11.28795800       3.60963234
Si       2.26689644      11.28795800       6.27165913
Si       0.02238856       2.07254929       1.79870234
Si       4.48390723       2.07254929       8.08258913
Si       2.23075934       2.07254929       6.73934807
Si       2.27553645       2.07254929       3.14194340
Si       0.36677834       8.56487266       2.11338811
Si       4.13951745       8.56487266       7.76790335
Si       1.88636956       8.56487266       7.05403385
Si       2.61992623       8.56487266       2.82725762
Si       2.24666605       0.59075509       1.17997913
Si       2.25962974       0.59075509       8.70131234
Si       0.00648185       0.59075509       6.12062486
Si       4.49981394       0.59075509       3.76066661
Si      -0.00000000       9.44783284      -0.00000000
Si       2.25314789       9.44783284       4.94064573
18
Lattice="4.507122649997345 0.0 0.0 0.0 11.693189288393135 -8.195946048535371e-16 0.0 6.883017394424112e-16 9.885380468438155" Properties=species:S:1:pos:R:3 unique_starting_index=36 config_type=initial n_minim_iter=10 stress="-0.0007866101240727278 1.8942554065846727e-16 4.618953502193731e-17 1.8942554065846727e-16 -0.0006080371552504638 4.340929452741564e-16 4.618953502193731e-17 4.340929452741564e-16 -0.002312816057941079" pbc="T T T"
Si       4.53020076      11.31963837       8.54944734
Si      -0.02307811      11.31963837       1.33593313
Si       2.23048321      11.31963837       3.60675710
Si       2.27663944      11.31963837       6.27862336
Si       0.00927426       2.06976460       1.80245437
Si       4.49784839       2.06976460       8.08292610
Si       2.24428706       2.06976460       6.74514461
Si       2.26283559       2.06976460       3.14023586
Si       0.31333199       8.57677380       2.10565556
Si       4.19379066       8.57677380       7.77972491
Si       1.94022933       8.57677380       7.04834579
Si       2.56689332       8.57677380       2.83703468
Si       2.24018613       0.59809098       1.19933873
Si       2.26693652       0.59809098       8.68604174
Si       0.01337519       0.59809098       6.14202896
Si       4.49374746       0.59809098       3.74335150
Si      -0.00000000       9.47821877      -0.00000000
Si       2.25356132       9.47821877       4.94269023
18
Lattice="4.507079663835776 0.0 0.0 0.0 11.673194258365616 -8.196560635050195e-16 0.0 6.906780263609521e-16 9.936830649188718" Properties=species:S:1:pos:R:3 unique_starting_index=36 config_type=initial n_minim_iter=11 stress="0.00214765870994694 1.9935219374794117e-16 1.5608628111516525e-16 1.9935219374794117e-16 0.002231402447098217 4.2862925028111114e-16 1.5608628111516525e-16 4.2862925028111114e-16 0.0065094024491787195" pbc="T T T"
Si       4.52396608      11.29930757       8.59605642
Si      -0.01688642      11.29930757       1.34077423
Si       2.23665342      11.29930757       3.62764110
Si       2.27042625      11.29930757       6.30918955
Si       0.00403936       2.07623503       1.80176834
Si       4.50304031       2.07623503       8.13506231
Si       2.24950047       2.07623503       6.77018367
Si       2.25757919       2.07623503       3.16664698
Si       0.30962694       8.57475089       2.11804701
Si       4.19745272       8.57475089       7.81878364
Si       1.94391289       8.57475089       7.08646234
Si       2.56316677       8.57475089       2.85036831
Si       2.24814426       0.58604255       1.21671561
Si       2.25893540       0.58604255       8.72011504
Si       0.00539557       0.58604255       6.18513094
Si       4.50168409       0.58604255       3.75169971
Si      -0.00000000       9.44070613      -0.00000000
Si       2.25353983       9.44070613       4.96841532
18
Lattice="4.523152590725427 0.0 0.0 0.0 11.537775548416104 -8.105057578132967e-16 0.0 6.889881657596601e-16 9.916097909381133" Properties=species:S:1:pos:R:3 unique_starting_index=36 config_type=initial n_minim_iter=12 stress="0.0005473366978572439 1.79399794854058e-16 1.4921182171334293e-16 1.79399794854058e-16 -0.000892077166705176 6.253375785187391e-16 1.4921182171334293e-16 6.253375785187391e-16 0.001273445466168761" pbc="T T T"
Si       4.54582704      11.16269121       8.58179155
Si      -0.02267445      11.16269121       1.33430636
Si       2.23890185      11.16269121       3.62374259
Si       2.28425074      11.16269121       6.29235532
Si      -0.02572640       2.06493781       1.78376864
Si       4.54887899       2.06493781       8.13232927
Si       2.28730269       2.06493781       6.74181759
Si       2.23584990       2.06493781       3.17428032
Si       0.19895785       8.47784409       2.10659319
Si       4.32419474       8.47784409       7.80950472
Si       2.06261844       8.47784409       7.06464215
Si       2.46053415       8.47784409       2.85145576
Si       2.24614877       0.56385655       1.22687170
Si       2.27700382       0.56385655       8.68922621
Si       0.01542753       0.56385655       6.18492065
Si       4.50772507       0.56385655       3.73117726
Si      -0.00000000       9.34231862      -0.00000000
Si       2.26157630       9.34231862       4.95804895
18
Lattice="4.526783223487602 0.0 0.0 0.0 11.491592569937916 -8.078545023912757e-16 0.0 6.881154821223974e-16 9.910415610322092" Properties=species:S:1:pos:R:3 unique_starting_index=36 config_type=initial n_minim_iter=13 stress="-0.0007917229782247526 2.084142458420519e-16 1.5656073638727263e-16 2.084142458420519e-16 -0.0004398167192662457 6.213126535280256e-16 1.5656073638727263e-16 6.213126535280256e-16 0.0003867264161199348" pbc="T T T"
Si       4.55373927      11.11143236       8.57787246
Si      -0.02695605      11.11143236       1.33254315
Si       2.23643556      11.11143236       3.62266465
Si       2.29034766      11.11143236       6.28775096
Si      -0.04484453       2.06408720       1.77699848
Si       4.57162775       2.06408720       8.13341713
Si       2.30823614       2.06408720       6.73220628
Si       2.21854709       2.06408720       3.17820933
Si       0.11857105       8.44433328       2.10105379
Si       4.40821217       8.44433328       7.80936182
Si       2.14482056       8.44433328       7.05626160
Si       2.38196266       8.44433328       2.85415401
Si       2.23813027       0.55459025       1.22991230
Si       2.28865295       0.55459025       8.68050331
Si       0.02526134       0.55459025       6.18512011
Si       4.50152188       0.55459025       3.72529550
Si      -0.00000000       9.31641899      -0.00000000
Si       2.26339161       9.31641899       4.95520781
18
Lattice="4.538795953020435 0.0 0.0 0.0 11.40505403269734 -8.019767246725815e-16 0.0 6.865564819580698e-16 9.889870592337939" Properties=species:S:1:pos:R:3 unique_starting_index=36 config_type=initial n_minim_iter=14 stress="-0.0012268845203858992 2.0036947185410015e-16 2.3576865458556623e-16 2.0036947185410015e-16 -0.0002796492403374352 6.151544761740358e-16 2.3576865458556623e-16 6.151544761740358e-16 -0.0042231177255149565" pbc="T T T"
Si       4.56483411      11.01248465       8.55935588
Si      -0.02603816      11.01248465       1.33051472
Si       2.24335982      11.01248465       3.61442058
Si       2.29543613      11.01248465       6.27545001
Si      -0.06164571       2.05988315       1.77053395
Si       4.60044166       2.05988315       8.11933664
Si       2.33104369       2.05988315       6.71546924
Si       2.20775226       2.05988315       3.17440135
Si       0.03841837       8.38859612       2.09713344
Si       4.50037758       8.38859612       7.79273716
Si       2.23097960       8.38859612       7.04206873
Si       2.30781635       8.38859612       2.84780186
Si       2.23458766       0.54438513       1.22603669
Si       2.30420830       0.54438513       8.66383390
Si       0.03481032       0.54438513       6.17097199
Si       4.50398563       0.54438513       3.71889860
Si      -0.00000000       9.25047536      -0.00000000
Si       2.26939798       9.25047536       4.94493530
18
Lattice="4.544804270316005 0.0 0.0 0.0 11.264002954597377 -7.934971137250516e-16 0.0 6.865040623550474e-16 9.904950533542356" Properties=species:S:1:pos:R:3 unique_starting_index=36 config_type=initial n_minim_iter=15 stress="-0.0024771023337650717 1.836079514212371e-16 1.4034857527154687e-16 1.836079514212371e-16 -0.00022668804155232393 4.3803594845420857e-16 1.4034857527154687e-16 4.3803594845420857e-16 -0.008268156085557466" pbc="T T T"
Si       4.55764698      10.84030752       8.55885122
Si      -0.01284271      10.84030752       1.34609932
Si       2.25955942      10.84030752       3.60637595
Si       2.28524485      10.84030752       6.29857458
Si      -0.06471671       2.04932314       1.78470415
Si       4.60952098       2.04932314       8.12024638
Si       2.33711885       2.04932314       6.73717942
Si       2.20768542       2.04932314       3.16777111
Si      -0.01999240       8.31158968       2.11178032
Si       4.56479667       8.31158968       7.79317022
Si       2.29239453       8.31158968       7.06425559
Si       2.25240974       8.31158968       2.84069495
Si       2.23269533       0.54246146       1.21105395
Si       2.31210894       0.54246146       8.69389659
Si       0.03970680       0.54246146       6.16352921
Si       4.50509747       0.54246146       3.74142132
Si      -0.00000000       9.11510660      -0.00000000
Si       2.27240214       9.11510660       4.95247527
18
Lattice="4.544320163244807 0.0 0.0 0.0 11.17252289946955 -7.895050012457497e-16 0.0 6.872028115287675e-16 9.943134299764527" Properties=species:S:1:pos:R:3 unique_starting_index=36 config_type=initial n_minim_iter=16 stress="-0.0022575814567784265 7.702991596268173e-17 1.0346596940396564e-16 7.702991596268173e-17 0.0005730916457823129 3.5524417946402494e-16 1.0346596940396564e-16 3.5524417946402494e-16 -0.005948245216077192" pbc="T T T"
Si       4.54218415      10.72682667       8.57444959
Si       0.00213601      10.72682667       1.36868471
Si       2.27429610      10.72682667       3.60288244
Si       2.27002407      10.72682667       6.34025186
Si      -0.05252877       2.04022446       1.80465113
Si       4.59684893       2.04022446       8.13848317
Si       2.32468885       2.04022446       6.77621828
Si       2.21963131       2.04022446       3.16691602
Si      -0.00964520       8.27165229       2.13383460
Si       4.55396536       8.27165229       7.80929970
Si       2.28180528       8.27165229       7.10540175
Si       2.26251488       8.27165229       2.83773255
Si       2.23974481       0.54750862       1.20028880
Si       2.30457536       0.54750862       8.74284550
Si       0.03241528       0.54750862       6.17185595
Si       4.51190489       0.54750862       3.77127835
Si      -0.00000000       9.00283773      -0.00000000
Si       2.27216008       9.00283773       4.97156715
18
Lattice="4.547596261212454 0.0 0.0 0.0 11.114475578490302 -7.894500965264626e-16 0.0 6.873414988460887e-16 9.992548041778806" Properties=species:S:1:pos:R:3 unique_starting_index=36 config_type=initial n_minim_iter=17 stress="0.00158578219764149 1.8538658298081165e-16 2.0677997634153179e-16 1.8538658298081165e-16 -0.0007546497699719537 5.704661298486687e-16 2.0677997634153179e-16 5.704661298486687e-16 0.001539385105801855" pbc="T T T"
Si       4.54228343      10.65802103       8.59683652
Si       0.00531283      10.65802103       1.39571153
Si       2.27911096      10.65802103       3.60056250
Si       2.26848530      10.65802103       6.39198555
Si      -0.04027010       2.02575782       1.82605670
Si       4.58786637       2.02575782       8.16649135
Si       2.31406823       2.02575782       6.82233072
Si       2.23352803       2.02575782       3.17021733
Si       0.00209222       8.24407596       2.15326962
Si       4.54550404       8.24407596       7.83927842
Si       2.27170591       8.24407596       7.14954364
Si       2.27589035       8.24407596       2.84300440
Si       2.24889326       0.56002424       1.19748992
Si       2.29870300       0.56002424       8.79505812
Si       0.02490487       0.56002424       6.19376394
Si       4.52269140       0.56002424       3.79878410
Si      -0.00000000       8.92842488      -0.00000000
Si       2.27379813       8.92842488       4.99627402
18
Lattice="4.534412927847599 0.0 0.0 0.0 11.18577820851691 -7.972539346793133e-16 0.0 6.847617721404429e-16 9.99048430209651" Properties=species:S:1:pos:R:3 unique_starting_index=36 config_type=initial n_minim_iter=18 stress="-0.000130201681788137 1.5027004772628617e-16 1.5857144878934394e-16 1.5027004772628617e-16 0.00027970454275748477 5.050197082610635e-16 1.5857144878934394e-16 5.050197082610635e-16 0.0005588131366965186" pbc="T T T"
Si       4.53152531      10.73430680       8.58613370
Si       0.00288762      10.73430680       1.40435060
Si       2.27009408      10.73430680       3.59089155
Si       2.26431885      10.73430680       6.39959275
Si      -0.02879344       2.03058289       1.82563151
Si       4.56320637       2.03058289       8.16485280
Si       2.29599990       2.03058289       6.82087366
Si       2.23841302       2.03058289       3.16961065
Si       0.04187510       8.29890172       2.15585328
Si       4.49253783       8.29890172       7.83463103
Si       2.22533136       8.29890172       7.15109543
Si       2.30908156       8.29890172       2.83938887
Si       2.25272519       0.57056822       1.20016741
Si       2.28168774       0.57056822       8.79031689
Si       0.01448128       0.57056822       6.19540956
Si       4.51993165       0.57056822       3.79507474
Si      -0.00000000       8.96844434      -0.00000000
Si       2.26720646       8.96844434       4.99524215
18
Lattice="4.53020008882914 0.0 0.0 0.0 11.151180520701752 -7.982342549029274e-16 0.0 6.826576896204171e-16 10.000744577022552" Properties=species:S:1:pos:R:3 unique_starting_index=36 config_type=initial n_minim_iter=19 stress="-0.0022327032244195476 1.8002018382124009e-16 1.4366512849308833e-16 1.8002018382124009e-16 -0.0025063652568405475 4.535287702821783e-16 1.4366512849308833e-16 4.535287702821783e-16 -0.0010607757762239418" pbc="T T T"
Si       4.52649246      10.69629650       8.57675871
Si       0.00370763      10.69629650       1.42398586
Si       2.26880767      10.69629650       3.57638643
Si       2.26139242      10.69629650       6.42435815
Si      -0.02650214       2.02723951       1.81974765
Si       4.55670223       2.02723951       8.18099693
Si       2.29160218       2.02723951       6.82011993
Si       2.23859790       2.02723951       3.18062464
Si       0.03039169       8.29328696       2.16584212
Si       4.49980840       8.29328696       7.83490246
Si       2.23470835       8.29328696       7.16621441
Si       2.29549174       8.29328696       2.83453017
Si       2.26363024       0.56970541       1.20747923
Si       2.26656985       0.56970541       8.79326535
Si       0.00146981       0.56970541       6.20785152
Si       4.52873028       0.56970541       3.79289306
Si      -0.00000000       8.90253695      -0.00000000
Si       2.26510004       8.90253695       5.00037229
18
Lattice="4.5383587732209545 0.0 0.0 0.0 11.171021093612566 -8.047044002369823e-16 0.0 6.781423684115314e-16 9.997894913388999" Properties=species:S:1:pos:R:3 unique_starting_index=36 config_type=initial n_minim_iter=20 stress="0.002726665984208462 1.4434283090989076e-16 2.056619155760503e-16 1.4434283090989076e-16 0.0010880911915932985 4.0782140144909245e-16 2.056619155760503e-16 4.0782140144909245e-16 0.0019842708950618265" pbc="T T T"
Si       4.53946915      10.70900897       8.56743412
Si      -0.00111038      10.70900897       1.43046079
Si       2.26806901      10.70900897       3.56848666
Si       2.27028977      10.70900897       6.42940825
Si      -0.02976439       2.03474883       1.81173979
Si       4.56812316       2.03474883       8.18615512
Si       2.29894378       2.03474883       6.81068725
Si       2.23941500       2.03474883       3.18720766
Si      -0.00751018       8.31156840       2.17172964
Si       4.54586896       8.31156840       7.82616527
Si       2.27668957       8.31156840       7.17067710
Si       2.26166920       8.31156840       2.82721782
Si       2.26461025       0.56788719       1.20130785
Si       2.27374852       0.56788719       8.79658706
Si       0.00456914       0.56788719       6.20025531
Si       4.53378964       0.56788719       3.79763960
Si      -0.00000000       8.92182165      -0.00000000
Si       2.26917939       8.92182165       4.99894746
18
Lattice="4.524612825887889 0.0 0.0 0.0 11.20490355975538 -8.110859918561233e-16 0.0 6.735921939643505e-16 9.982412548237338" Properties=species:S:1:pos:R:3 unique_starting_index=36 config_type=initial n_minim_iter=21 stress="-0.0013263865870185158 2.403471436541414e-16 3.0220312106984196e-16 2.403471436541414e-16 0.0018602535462804895 3.317345278616328e-16 3.0220312106984196e-16 3.317345278616328e-16 -0.0008782693200217426" pbc="T T T"
Si       4.52641589      10.73745795       8.54219216
Si      -0.00180306      10.73745795       1.44022039
Si       2.26050335      10.73745795       3.55098589
Si       2.26410948      10.73745795       6.43142666
Si      -0.01794032       2.03962240       1.80389358
Si       4.54255315       2.03962240       8.17851897
Si       2.28024673       2.03962240       6.79509985
Si       2.24436609       2.03962240       3.18731270
Si       0.00583837       8.34425923       2.18418958
Si       4.51877445       8.34425923       7.79822297
Si       2.25646804       8.34425923       7.17539585
Si       2.26814478       8.34425923       2.80701669
Si       2.26228589       0.57258939       1.19853706
Si       2.26232693       0.57258939       8.78387548
Si       0.00002052       0.57258939       6.18974334
Si       4.52459230       0.57258939       3.79266921
Si      -0.00000000       8.93862033      -0.00000000
Si       2.26230641       8.93862033       4.99120627
