8
Lattice="6.1490914436110495 1.0493531524570325 0.8289437705776491 2.852967510259687 5.547345672108854 0.8289437705776836 2.8529675102597296 2.090651429622364 5.204744794940661" Properties=species:S:1:pos:R:3 unique_starting_index=42 config_type=initial n_minim_iter=11 energy=-1302.071658784964 free_energy=-1302.071658784964 pbc="T T T"
Si       7.65926923       6.26674498       2.51012513
Si       8.28292870       3.69568120       4.68745758
Si       6.01916779       6.13083829       5.51540271
Si       9.21834091       7.35865153       4.05303210
Si       9.79377045       5.46469002       5.45654232
Si       8.16113022       7.08917977       6.22045933
Si       7.89311561       5.78406637       4.56916318
Si       2.27147627       1.66453530       1.31491116
