10
Lattice="5.380130783575143 -0.2926627946946935 2.4723321604135657e-17 -3.0546507291423173 5.355988928788236 -4.524587313285291e-16 2.486210136067523e-31 5.784411664653039e-16 6.847308426221923" Properties=species:S:1:pos:R:3 unique_starting_index=14 config_type=initial n_minim_iter=1 energy=-1627.3649828930343 free_energy=-1627.3649828930343 pbc="T T T"
Si       0.18977680       2.11595043       0.74414026
Si       2.13570325       2.94737571       0.74414026
Si       1.86117992       0.82735129       0.42542440
Si       0.46430013       4.23597484       0.42542440
Si       1.20298765       0.25542015       4.91347829
Si       1.12249240       4.80790599       4.91347829
Si       0.53586382       3.38706668       2.40509641
Si       1.78961624       1.67625945       2.40509641
Si      -0.83970094       3.65562820       4.07079867
Si       3.16518099       1.40769794       4.07079867
10
Lattice="5.390235501735506 -0.285737195388666 2.413826664652508e-17 -3.053021835473278 5.364656284208767 -4.531909248953357e-16 2.5051154176132727e-31 5.786350259987196e-16 6.8496032421748945" Properties=species:S:1:pos:R:3 unique_starting_index=14 config_type=initial n_minim_iter=2 stress="0.021167290703012924 -0.005603499977552528 8.35153923251507e-17 -0.005603499977552528 0.001447743252634706 3.785645811278457e-17 8.35153923251507e-17 3.785645811278457e-17 0.01987488473710547" pbc="T T T"
Si       0.19272700       2.12056163       0.74432662
Si       2.14448666       2.95835746       0.74432662
Si       1.86560942       0.83189019       0.42575482
Si       0.47160424       4.24702890       0.42575482
Si       1.20573965       0.25770663       4.91520255
Si       1.13147401       4.82121246       4.91520255
Si       0.54164726       3.39653481       2.40579759
Si       1.79556640       1.68238428       2.40579759
Si      -0.83620459       3.66334064       4.07206547
Si       3.17341825       1.41557844       4.07206547
10
Lattice="5.383467837701789 -0.26340779427077043 2.2251942265452338e-17 -3.02627056417995 5.377150059304751 -4.542463635276017e-16 2.386291000246448e-31 5.762315008526757e-16 6.821151467060564" Properties=species:S:1:pos:R:3 unique_starting_index=14 config_type=initial n_minim_iter=3 stress="0.006617155093156808 0.015352084929782045 1.1531860135337005e-15 0.015352084929782045 -0.017955801721240148 2.957406096377477e-16 1.1531860135337005e-15 2.957406096377477e-16 0.004443456782526073" pbc="T T T"
Si       0.20448785       2.13052145       0.74213352
Si       2.15270942       2.98322082       0.74213352
Si       1.86518007       0.84406898       0.42520467
Si       0.49201720       4.26967328       0.42520467
Si       1.20583092       0.26406211       4.89517622
Si       1.15136635       4.84968015       4.89517622
Si       0.55585810       3.41618600       2.39379547
Si       1.80133918       1.69755626       2.39379547
Si      -0.81944280       3.67752070       4.05465256
Si       3.17664007       1.43622157       4.05465256
10
Lattice="5.377445298163707 -0.25558783240549443 2.159133409922135e-17 -3.0115637246451183 5.441539303468194 -4.596857839806212e-16 2.3438024834724085e-31 5.729923052145987e-16 6.7828074264344105" Properties=species:S:1:pos:R:3 unique_starting_index=14 config_type=initial n_minim_iter=4 stress="0.00013321988944028814 -0.001247828274678391 1.6226374924352587e-15 -0.001247828274678391 0.0017607399101014672 -1.7415562252850016e-15 1.6226374924352587e-15 -1.7415562252850016e-15 -0.0032973265561853904" pbc="T T T"
Si       0.21490200       2.15903504       0.73982623
Si       2.15097957       3.02691644       0.73982623
Si       1.86230657       0.85752967       0.42464838
Si       0.50357500       4.32842180       0.42464838
Si       1.20554169       0.26969934       4.86839578
Si       1.16033988       4.91625213       4.86839578
Si       0.56215712       3.46422414       2.37679292
Si       1.80372445       1.72172733       2.37679292
Si      -0.81122866       3.72447917       4.03097069
Si       3.17711023       1.46147230       4.03097069
10
Lattice="5.387977625436752 -0.2230239821396114 1.884043252448507e-17 -2.98153579863352 5.507537199795921 -4.652610987991957e-16 2.4187387020145524e-31 5.719263993749907e-16 6.770189745570327" Properties=species:S:1:pos:R:3 unique_starting_index=14 config_type=initial n_minim_iter=5 stress="0.0029538587304814923 -0.0028123632365469136 1.591281623841344e-15 -0.0028123632365469136 -0.0006182320926628914 -1.5064886421091232e-15 1.591281623841344e-15 -1.5064886421091232e-15 -0.00740651608852126" pbc="T T T"
Si       0.23997014       2.19993818       0.74376605
Si       2.16647169       3.08457504       0.74376605
Si       1.86937181       0.87499437       0.42488785
Si       0.53707001       4.40951884       0.42488785
Si       1.21120361       0.28097031       4.86063065
Si       1.19523822       5.00354291       4.86063065
Si       0.59306292       3.51525068       2.36596029
Si       1.81337890       1.76926254       2.36596029
Si      -0.79035076       3.77952947       4.02224655
Si       3.19679259       1.50498375       4.02224655
10
Lattice="5.384812203423388 -0.22065882070641496 1.864063040471233e-17 -2.977251680522548 5.509970302431612 -4.654666403987722e-16 2.522377265450026e-31 5.723189628406382e-16 6.77483672314037" Properties=species:S:1:pos:R:3 unique_starting_index=14 config_type=initial n_minim_iter=6 stress="-0.007268995114187638 -0.0008936073912968284 1.049731798919373e-15 -0.0008936073912968284 0.0024552119117263603 -6.80617066288859e-16 1.049731798919373e-15 -6.80617066288859e-16 0.005135496953262891" pbc="T T T"
Si       0.24147870       2.20181336       0.74398888
Si       2.16608182       3.08749812       0.74398888
Si       1.86846067       0.87573434       0.42546725
Si       0.53909985       4.41357714       0.42546725
Si       1.21075326       0.28155624       4.86405329
Si       1.19680726       5.00775524       4.86405329
Si       0.59485601       3.51799081       2.36767358
Si       1.81270451       1.77132067       2.36767358
Si      -0.78832152       3.78197964       4.02483159
Si       3.19588204       1.50733184       4.02483159
10
Lattice="5.394105573309414 -0.1970546152370232 1.664661417303292e-17 -2.959124540445135 5.5082294603122355 -4.653195790012884e-16 2.510057957749766e-31 5.692482895093525e-16 6.738487568560017" Properties=species:S:1:pos:R:3 unique_starting_index=14 config_type=initial n_minim_iter=7 stress="-0.004829703858130838 -0.001352100404298192 8.142090930383394e-16 -0.001352100404298192 -0.000907235276939243 -2.247205784398279e-15 8.142090930383394e-16 -2.247205784398279e-15 -0.009598265696760148" pbc="T T T"
Si       0.25449437       2.21526788       0.73225821
Si       2.18048666       3.09590696       0.73225821
Si       1.87190440       0.86722957       0.43360175
Si       0.56307663       4.44394527       0.43360175
Si       1.21696302       0.28264944       4.83977781
Si       1.21801801       5.02852540       4.83977781
Si       0.61910165       3.53256482       2.35553534
Si       1.81587938       1.77861002       2.35553534
Si      -0.77789892       3.79180292       3.99817197
Si       3.21287995       1.51937192       3.99817197
10
Lattice="5.410634498971857 -0.1669696936517698 1.410512545198328e-17 -2.940712462921928 5.46864456176932 -4.619755592109884e-16 2.571525736720844e-31 5.693474108633291e-16 6.73966091949292" Properties=species:S:1:pos:R:3 unique_starting_index=14 config_type=initial n_minim_iter=8 stress="-0.003030691121753433 -0.0059373910452021 5.992423334008161e-16 -0.0059373910452021 -0.002141566671250511 -2.3066725436387578e-15 5.992423334008161e-16 -2.3066725436387578e-15 0.0022406063101450533" pbc="T T T"
Si       0.26833715       2.21955754       0.72927729
Si       2.20158489       3.08211733       0.72927729
Si       1.86691658       0.84395402       0.43976679
Si       0.60300546       4.45772084       0.43976679
Si       1.22515969       0.28053712       4.84346736
Si       1.24476235       5.02113775       4.84346736
Si       0.63631099       3.52672580       2.35931921
Si       1.83361104       1.77494906       2.35931921
Si      -0.76750792       3.77855120       3.98966653
Si       3.23742995       1.52312367       3.98966653
10
Lattice="5.415855062688958 -0.12685512855029565 1.071636093530324e-17 -2.904695137548029 5.4511218465195075 -4.604952899989393e-16 2.516375382767629e-31 5.688809480243416e-16 6.734139156670547" Properties=species:S:1:pos:R:3 unique_starting_index=14 config_type=initial n_minim_iter=9 stress="0.003838244571499022 -0.00019738948570373563 6.856643766942829e-16 -0.00019738948570373563 -0.0007463120933045052 -2.747181477922331e-15 6.856643766942829e-16 -2.747181477922331e-15 0.0005382276993698049" pbc="T T T"
Si       0.28541654       2.23717800       0.72627064
Si       2.22574338       3.08708872       0.72627064
Si       1.85183519       0.82499379       0.44960092
Si       0.65932474       4.49927293       0.44960092
Si       1.22943396       0.28230329       4.84297972
Si       1.28172596       5.04196343       4.84297972
Si       0.65938149       3.54160539       2.35646200
Si       1.85177843       1.78266133       2.35646200
Si      -0.75108578       3.78093706       3.97605620
Si       3.26224570       1.54332965       3.97605620
10
Lattice="5.416022873159374 -0.07681774907397448 6.489345245414091e-18 -2.856071068361518 5.431019541823545 -4.587971043976535e-16 2.5434468338123785e-31 5.715681756053502e-16 6.765949264811806" Properties=species:S:1:pos:R:3 unique_starting_index=14 config_type=initial n_minim_iter=10 stress="0.005629704897619109 -0.008427188125611149 -2.919823802485389e-16 -0.008427188125611149 0.008681870825153253 -3.4194818121888557e-15 -2.919823802485389e-16 -3.4194818121888557e-15 0.007969460296393985" pbc="T T T"
Si       0.30250115       2.27023817       0.72371466
Si       2.25745065       3.08396362       0.72371466
Si       1.80531691       0.78388726       0.47794752
Si       0.75463489       4.57031453       0.47794752
Si       1.22644080       0.28362695       4.87383791
Si       1.33351101       5.07057484       4.87383791
Si       0.68810281       3.56287692       2.35949033
Si       1.87184900       1.79132487       2.35949033
Si      -0.73977114       3.77682591       3.97472333
Si       3.29972294       1.57737588       3.97472333
10
Lattice="5.411086826031255 -0.08296040772215219 7.008259600146994e-18 -2.860006404355104 5.4195711765733074 -4.5782997901973e-16 2.63661602513068e-31 5.731108216377588e-16 6.784210366871564" Properties=species:S:1:pos:R:3 unique_starting_index=14 config_type=initial n_minim_iter=11 stress="0.007175773731869756 0.009791906690722867 3.3220751733030964e-16 0.009791906690722867 -0.005331085493790752 -8.230645179580745e-16 3.3220751733030964e-16 -8.230645179580745e-16 0.0014874799297607314" pbc="T T T"
Si       0.29491886       2.26554035       0.72378069
Si       2.25616156       3.07107042       0.72378069
Si       1.79404203       0.78135107       0.48432254
Si       0.75703839       4.55525970       0.48432254
Si       1.21922762       0.28318176       4.88911535
Si       1.33185280       5.05342901       4.88911535
Si       0.68227306       3.55238273       2.36399343
Si       1.86880736       1.78422804       2.36399343
Si      -0.74554074       3.75878724       3.98199521
Si       3.29662116       1.57782353       3.98199521
10
Lattice="5.382572596903279 -0.0861746145165389 7.279786660369054e-18 -2.845038756665667 5.455934347749885 -4.609018364332514e-16 2.68449657859306e-31 5.727302961628339e-16 6.7797058892480795" Properties=species:S:1:pos:R:3 unique_starting_index=14 config_type=initial n_minim_iter=12 stress="-0.0013890639561676696 0.0005181670561889099 -3.1714683027447085e-16 0.0005181670561889099 0.002896294659085543 -2.8371708016841184e-15 -3.1714683027447085e-16 -2.8371708016841184e-15 -0.007703869161327788" pbc="T T T"
Si       0.28594894       2.28879034       0.71845186
Si       2.25158490       3.08096940       0.71845186
Si       1.77060913       0.78393730       0.49275316
Si       0.76692471       4.58582243       0.49275316
Si       1.20317777       0.28626915       4.89090292
Si       1.33435607       5.08349058       4.89090292
Si       0.67994379       3.57060950       2.36138011
Si       1.85759005       1.79915023       2.36138011
Si      -0.74279959       3.76897775       3.97145730
Si       3.28033343       1.60078199       3.97145730
10
Lattice="5.40862566559517 -0.08546987400344108 7.220252183597059e-18 -2.8593765745716286 5.451386818583113 -4.60517674086235e-16 2.82160961092526e-31 5.749157237092612e-16 6.805575929834909" Properties=species:S:1:pos:R:3 unique_starting_index=14 config_type=initial n_minim_iter=13 stress="-0.0044266593276563815 -0.001493633653170317 -8.675541412691394e-17 -0.001493633653170317 -0.0018642717904003704 -1.6026040326659826e-15 -8.675541412691394e-17 -1.6026040326659826e-15 -0.003177543026572371" pbc="T T T"
Si       0.28980890       2.29403446       0.71819028
Si       2.25944019       3.07188248       0.71819028
Si       1.77174304       0.78731374       0.49816782
Si       0.77750604       4.57860320       0.49816782
Si       1.20533523       0.28576289       4.91249780
Si       1.34391386       5.08015406       4.91249780
Si       0.68400126       3.56705927       2.36764807
Si       1.86524783       1.79885768       2.36764807
Si      -0.74769092       3.76037919       3.98589072
Si       3.29694001       1.60553775       3.98589072
10
Lattice="5.416930014440085 -0.07892586433568674 6.667432834744588e-18 -2.8577206122467733 5.448743967459478 -4.602944135301754e-16 2.758328372384517e-31 5.7507150411614e-16 6.807419983395584" Properties=species:S:1:pos:R:3 unique_starting_index=14 config_type=initial n_minim_iter=14 stress="0.002093904235760907 0.0010255083595111815 -8.352198504861079e-17 0.0010255083595111815 0.0008944795205688295 -6.183410959765486e-16 -8.352198504861079e-17 -6.183410959765486e-16 0.0049501304797224055" pbc="T T T"
Si       0.29266258       2.30038677       0.71607804
Si       2.26654682       3.06943133       0.71607804
Si       1.77168597       0.79023390       0.49740905
Si       0.78752343       4.57958420       0.49740905
Si       1.20641577       0.28471659       4.91636622
Si       1.35279362       5.08510151       4.91636622
Si       0.68845446       3.56780869       2.36950739
Si       1.87075494       1.80200941       2.36950739
Si      -0.74342954       3.75911011       3.98641625
Si       3.30263894       1.61070799       3.98641625
10
Lattice="5.434374447634232 -0.06414261433525537 5.418585865671235e-18 -2.8527439248174256 5.451760942958469 -4.605492790507864e-16 2.718139030921505e-31 5.739026886585358e-16 6.79358410795045" Properties=species:S:1:pos:R:3 unique_starting_index=14 config_type=initial n_minim_iter=15 stress="0.008499694161622495 -0.0001244145909696962 -1.2241160426917817e-15 -0.0001244145909696962 0.003365644313711071 -2.588931888975659e-15 -1.2241160426917817e-15 -2.588931888975659e-15 0.005519320015033439" pbc="T T T"
Si       0.29697255       2.32693109       0.70416885
Si       2.28465797       3.06068724       0.70416885
Si       1.77171970       0.81075577       0.48904193
Si       0.80991082       4.57686256       0.48904193
Si       1.20601710       0.27569887       4.91758658
Si       1.37561342       5.11191946       4.91758658
Si       0.70044820       3.57694289       2.36857304
Si       1.88118232       1.81067544       2.36857304
Si      -0.72788143       3.76105225       3.98102959
Si       3.30951195       1.62656608       3.98102959
10
Lattice="5.407689557555915 -0.03324812597701288 2.8087072431668574e-18 -2.806223026789745 5.463053663030838 -4.615032559661847e-16 2.6991289523068025e-31 5.7396798027184315e-16 6.794356998677945" Properties=species:S:1:pos:R:3 unique_starting_index=14 config_type=initial n_minim_iter=16 stress="0.009191450034842369 -0.0036201499060219667 -9.216330677264492e-16 -0.0036201499060219667 0.010345118405906583 8.023367946613158e-16 -9.216330677264492e-16 8.023367946613158e-16 0.0037536246665495236" pbc="T T T"
Si       0.29892544       2.37029458       0.69160255
Si       2.30254109       3.05951096       0.69160255
Si       1.73914603       0.81551876       0.49049298
Si       0.86232050       4.61428678       0.49049298
Si       1.19310601       0.25940912       4.93628265
Si       1.40836052       5.17039641       4.93628265
Si       0.72459795       3.60749720       2.36086811
Si       1.87686857       1.82230834       2.36086811
Si      -0.70591984       3.77257061       3.98257128
Si       3.30738637       1.65723493       3.98257128
10
Lattice="5.400084444763319 -0.04286278871523025 3.620926641400333e-18 -2.8111019522046448 5.46994147748465 -4.620851189668061e-16 2.876711457407462e-31 5.738143187827779e-16 6.792538027847616" Properties=species:S:1:pos:R:3 unique_starting_index=14 config_type=initial n_minim_iter=17 stress="-0.005234592217315561 0.00046668226677484153 -1.5668204121528937e-16 0.00046668226677484153 -0.0035608994097164046 4.039840857008401e-15 -1.5668204121528937e-16 4.039840857008401e-15 -0.0049562823370527045" pbc="T T T"
Si       0.29325138       2.36873250       0.69097666
Si       2.29573111       3.05834619       0.69097666
Si       1.74036467       0.82587776       0.48221520
Si       0.84861782       4.60120092       0.48221520
Si       1.19043107       0.25231701       4.93925166
Si       1.39855142       5.17476168       4.93925166
Si       0.71921619       3.60652496       2.35860406
Si       1.86976630       1.82055373       2.35860406
Si      -0.70632861       3.77438540       3.98743374
Si       3.29531110       1.65269329       3.98743374
10
Lattice="5.409766508256125 -0.05210503643956704 4.401685477084377e-18 -2.82558944409256 5.473809744084074 -4.624118991415386e-16 2.7356073333447194e-31 5.749965946025937e-16 6.806533240589149" Properties=species:S:1:pos:R:3 unique_starting_index=14 config_type=initial n_minim_iter=18 stress="0.007458489965515203 0.004362612874228425 8.5445130980617665e-16 0.004362612874228425 -0.001360405119323927 7.844233922872384e-15 8.5445130980617665e-16 7.844233922872384e-15 0.0037859557155858945" pbc="T T T"
Si       0.28651520       2.37598125       0.68450973
Si       2.29766186       3.04572346       0.68450973
Si       1.72609685       0.82653309       0.47887664
Si       0.85808021       4.59517162       0.47887664
Si       1.18892406       0.23475163       4.96698007
Si       1.39525300       5.18695308       4.96698007
Si       0.71724926       3.60416588       2.35831961
Si       1.86692780       1.81753882       2.35831961
Si      -0.70858889       3.76841267       3.99546447
Si       3.29276595       1.65329204       3.99546447
10
Lattice="5.409759042643248 -0.055459413328384444 4.685053708738942e-18 -2.8277705611922372 5.495023596687254 -4.642039851527392e-16 2.975011184856215e-31 5.749166848216191e-16 6.8055873070209225" Properties=species:S:1:pos:R:3 unique_starting_index=14 config_type=initial n_minim_iter=19 stress="-0.005406397501924644 -0.003434423369914477 1.3527415572182407e-15 -0.003434423369914477 0.002258037120581052 8.90867482298538e-15 1.3527415572182407e-15 8.90867482298538e-15 0.003907520735270481" pbc="T T T"
Si       0.28603982       2.38718974       0.67616635
Si       2.29594866       3.05237444       0.67616635
Si       1.70967384       0.82124106       0.47366860
Si       0.87231464       4.61832312       0.47366860
Si       1.19187036       0.21001830       4.99294093
Si       1.39011812       5.22954589       4.99294093
Si       0.72179705       3.61639825       2.34711882
Si       1.86019143       1.82316593       2.34711882
Si      -0.70059841       3.78020495       3.99252085
Si       3.28258688       1.65935923       3.99252085
10
Lattice="5.405871933916681 -0.060602335508443295 5.119513166338552e-18 -2.8309585844714915 5.489965531712291 -4.637766941907941e-16 3.1869692348904575e-31 5.754813434889192e-16 6.812271464848367" Properties=species:S:1:pos:R:3 unique_starting_index=14 config_type=initial n_minim_iter=20 stress="-0.0020031820062263073 -0.001064459823860409 7.81550786653358e-16 -0.001064459823860409 0.0006558943630978039 7.880683126480644e-15 7.81550786653358e-16 7.880683126480644e-15 0.0015999708639517181" pbc="T T T"
Si       0.28166229       2.38350827       0.67239006
Si       2.29325106       3.04585493       0.67239006
Si       1.70430150       0.81566103       0.47363653
Si       0.87061185       4.61370217       0.47363653
Si       1.19268155       0.19733731       5.01037071
Si       1.38223180       5.23202588       5.01037071
Si       0.72023763       3.61179167       2.34441532
Si       1.85467572       1.81757153       2.34441532
Si      -0.69736386       3.77487647       3.99386262
Si       3.27227720       1.65448673       3.99386262
10
Lattice="5.39545698566202 -0.06474701927208015 5.469644277957078e-18 -2.8300697103962045 5.473452021142638 -4.623816797235377e-16 3.181082380044662e-31 5.788468915002313e-16 6.852111204121309" Properties=species:S:1:pos:R:3 unique_starting_index=14 config_type=initial n_minim_iter=21 stress="0.00047460460574994006 0.001725161034442442 8.391565091540458e-16 0.001725161034442442 -0.003228533371308794 6.4653696570414675e-15 8.391565091540458e-16 6.4653696570414675e-15 -0.006263129576965934" pbc="T T T"
Si       0.27653057       2.37270220       0.67112249
Si       2.28885670       3.03600280       0.67112249
Si       1.70086798       0.80623459       0.47742486
Si       0.86451929       4.60247041       0.47742486
Si       1.19521062       0.17407764       5.06786718
Si       1.37017665       5.23462736       5.06786718
Si       0.71373499       3.60011129       2.34458330
Si       1.85165228       1.80859371       2.34458330
Si      -0.68046171       3.76027387       4.00674918
Si       3.24584898       1.64843113       4.00674918
