# generated using pymatgen
data_Te
_symmetry_space_group_name_H-M   'P 1'
_cell_length_a   4.37819268
_cell_length_b   4.37819268
_cell_length_c   6.00456245
_cell_angle_alpha   89.31403787
_cell_angle_beta   90.68596213
_cell_angle_gamma   120.98488142
_symmetry_Int_Tables_number   1
_chemical_formula_structural   Te
_chemical_formula_sum   Te3
_cell_volume   98.6653006213
_cell_formula_units_Z   3
loop_
 _symmetry_equiv_pos_site_id
 _symmetry_equiv_pos_as_xyz
  1  'x, y, z'
loop_
 _atom_site_type_symbol
 _atom_site_label
 _atom_site_symmetry_multiplicity
 _atom_site_fract_x
 _atom_site_fract_y
 _atom_site_fract_z
 _atom_site_occupancy
  Te  Te1  1  0.313229  0.686771  0.337675  1
  Te  Te2  1  0.686771  0.313229  0.662325  1
  Te  Te3  1  0.000000  0.000000  0.000000  1
