2
Lattice="3.030791024689575 -6.436028594994698e-33 -7.338142797005873e-34 -8.413566866339306e-34 3.030791024689576 1.5434999477913162e-17 9.563693897404058e-35 1.5434999477913144e-17 3.0307910246895755" Properties=species:S:1:pos:R:3 n_minim_iter=4 pbc="T T T"
V        0.00000000       0.00000000       0.00000000
V        1.51539551       1.51539551       1.51539551
