24
Lattice="9.026502704685951 0.27872172067688844 -0.014424315270791178 -2.8521439706484597 5.263112744820337 0.011303099303270135 -0.01556798091005252 0.01255757690586585 9.221778315114275" Properties=species:S:1:pos:R:3 n_minim_iter=1 energy=-34155.84963128994 free_energy=-34155.84963128994 pbc="T T T"
Ti      -0.10568011       0.07819050       0.00737007
Ti       0.12154834       1.74260911       2.31305032
Ti      -0.02954161       0.05887669       4.61240026
Ti       0.08850151       1.76068291       6.89836842
Ti      -1.52599010       2.63237707       0.05020192
Al      -1.29291809       4.40098745       2.27851564
Ti      -1.49320006       2.71499874       4.58495393
Ti      -1.34416115       4.38075570       6.91727936
Ti       2.94565312       0.19865823      -0.01497497
Ti       3.16011398       1.87081232       2.32543593
Ti       2.90399445       0.10656272       4.61157407
Ti       3.13440808       1.90192606       6.87884621
Ti       1.52806921       2.76156988       0.02358851
V        1.62318302       4.48482153       2.28523675
Ti       1.50768003       2.78266121       4.58000464
Ti       1.72500698       4.52797803       6.92386852
Al       5.93845268       0.20018750       0.08257575
Ti       6.14216518       1.97547469       2.30450665
Ti       5.89220934       0.16038791       4.57695652
Ti       6.14187958       1.85802214       6.91378517
Ti       4.51764572       2.82214940      -0.03979004
Ti       4.71922301       4.50246600       2.31758371
Ti       4.55592898       2.83832134       4.65121857
Al       4.73161722       4.58408136       6.89185294
24
Lattice="9.065929893347738 0.266695339695594 -0.006883645159543819 -2.872052506591923 5.277694434457457 0.01288130808259105 -0.00825760474022737 0.019504673936981277 9.162841231068635" Properties=species:S:1:pos:R:3 n_minim_iter=2 stress="0.05440232100437131 0.0024957193945866654 4.233873639796503e-05 0.0024957193945866654 0.05660753076559913 0.0008873886993155889 4.233873639796503e-05 0.0008873886993155889 0.0556910175646846" pbc="T T T"
Ti      -0.10617547       0.07861179       0.00745244
Ti       0.12148458       1.74768314       2.29971261
Ti      -0.02594589       0.06250370       4.58276963
Ti       0.09195560       1.76928033       6.85567423
Ti      -1.53632451       2.63978929       0.05075577
Al      -1.30281127       4.41331001       2.26610735
Ti      -1.49959746       2.72582583       4.55642298
Ti      -1.35054341       4.39668667       6.87524478
Ti       2.95833445       0.19502331      -0.01234998
Ti       3.17329446       1.87185837       2.31455501
Ti       2.92044605       0.10625752       4.58442622
Ti       3.15108881       1.90657122       6.83866733
Ti       1.53106367       2.76499977       0.02689002
V        1.62553121       4.49334789       2.27524638
Ti       1.51419665       2.78958132       4.55381499
Ti       1.73176796       4.53980855       6.88444831
Al       5.96439602       0.19242282       0.08730181
Ti       6.16827858       1.97275152       2.29635525
Ti       5.92158303       0.15598207       4.55233819
Ti       6.17197130       1.85842346       6.87583914
Ti       4.53353292       2.82145950      -0.03364912
Ti       4.73561951       4.50665588       2.31002777
Ti       4.57577364       2.84102981       4.62709224
Al       4.75156390       4.59178931       6.85499341
24
Lattice="9.089086259030854 0.23335511827605268 -0.005794417138694553 -2.8989999416978502 5.283627622362673 0.00726120457183958 -0.0069785594427806946 0.010479475748730852 9.146503400351058" Properties=species:S:1:pos:R:3 n_minim_iter=3 stress="0.05481774806895082 0.00020248952842988452 0.0003078385851102808 0.00020248952842988452 0.05508431211420151 -0.0002290518822545659 0.0003078385851102808 -0.0002290518822545659 0.05368216742137195" pbc="T T T"
Ti      -0.10663063       0.07905957       0.00747123
Ti       0.11563915       1.74348410       2.29397912
Ti      -0.02533131       0.05802298       4.57438761
Ti       0.08675369       1.76071780       6.84172220
Ti      -1.54962884       2.64285842       0.04782136
Al      -1.32201616       4.41202609       2.25747717
Ti      -1.51247074       2.72419904       4.54539847
Ti      -1.36910847       4.39113805       6.85849503
Ti       2.96547819       0.18412281      -0.01206252
Ti       3.17519878       1.85628187       2.30910289
Ti       2.92866555       0.09106541       4.57652685
Ti       3.15339659       1.88678956       6.82498081
Ti       1.52521138       2.75692938       0.02449760
V        1.61269147       4.48167699       2.26691120
Ti       1.50878100       2.77710956       4.54299506
Ti       1.72063882       4.52268513       6.86807481
Al       5.97955192       0.17044400       0.08813213
Ti       6.17767286       1.94649435       2.29141908
Ti       5.93760765       0.12955502       4.54481361
Ti       6.18264816       1.82756019       6.86261438
Ti       4.53522796       2.80242820      -0.03549970
Ti       4.73215672       4.48319009       2.30225488
Ti       4.57824566       2.81706831       4.61657352
Al       4.74826797       4.56367590       6.83897458
24
Lattice="9.094910361152973 0.2254108258508792 -0.012581420849280768 -2.9053860254881676 5.281060443022775 0.01697171001313485 -0.014331676332677939 0.02351593847885312 9.149227276323225" Properties=species:S:1:pos:R:3 n_minim_iter=4 stress="0.0549568125077235 -0.00017391333776227883 -0.0007746339764596142 -0.00017391333776227883 0.05413495819226143 0.0013743659987813634 -0.0007746339764596142 0.0013743659987813634 0.053864842531802175" pbc="T T T"
Ti      -0.10628592       0.07933731       0.00799811
Ti       0.11171078       1.74519155       2.29716269
Ti      -0.02823288       0.06441377       4.57546332
Ti       0.07966622       1.76907857       6.84605965
Ti      -1.55143211       2.64088963       0.05261485
Al      -1.32854788       4.41232908       2.26523145
Ti      -1.51819151       2.72859070       4.55179475
Ti      -1.37927889       4.39814351       6.86778210
Ti       2.96750321       0.18145877      -0.01406039
Ti       3.17352751       1.85499050       2.31004997
Ti       2.92746573       0.09507568       4.57557878
Ti       3.14767872       1.89246919       6.82697235
Ti       1.52456153       2.75261726       0.02740322
V        1.60540420       4.48025147       2.27230204
Ti       1.50415781       2.77942285       4.54667749
Ti       1.71183707       4.52654376       6.87531700
Al       5.98337906       0.16536505       0.08427788
Ti       6.17760475       1.94351875       2.29049311
Ti       5.93834784       0.13035813       4.54145423
Ti       6.17943711       1.83059598       6.86221779
Ti       4.53607260       2.79559422      -0.03471028
Ti       4.72972809       4.47828084       2.30556284
Ti       4.57544417       2.81641192       4.61792652
Al       4.74140955       4.56516395       6.84376649
24
Lattice="9.114710887799596 0.17962165796624366 0.01591778294309451 -2.9379677489598905 5.269735985361105 0.009344939845306103 0.014651217074550305 0.02587724992416861 9.172953200231262" Properties=species:S:1:pos:R:3 n_minim_iter=5 stress="0.05328694826281386 -0.001848665024290865 0.002865289237811123 -0.001848665024290865 0.04986580792308333 0.0007241774431774401 0.002865289237811123 0.0007241774431774401 0.055448729713521654" pbc="T T T"
Ti      -0.09788697       0.08365033       0.01386617
Ti       0.09758286       1.74067864       2.30651397
Ti       0.00182296       0.06325577       4.58041453
Ti       0.08945158       1.76898937       6.86280042
Ti      -1.54038984       2.62028854       0.04617792
Al      -1.34837593       4.40139252       2.26468020
Ti      -1.49773886       2.70947769       4.56014292
Ti      -1.38362248       4.39007853       6.88244360
Ti       2.97764888       0.16651093      -0.00348765
Ti       3.17216428       1.82929650       2.32879463
Ti       2.95988648       0.08203599       4.59412996
Ti       3.15362983       1.87745587       6.85082105
Ti       1.52759834       2.72373744       0.03700956
V        1.54429651       4.46929083       2.27873527
Ti       1.51547596       2.75503003       4.55693042
Ti       1.70408632       4.49547132       6.90314870
Al       5.99827963       0.13567090       0.11369216
Ti       6.17650798       1.92037842       2.32520695
Ti       5.97645948       0.09192531       4.56776101
Ti       6.20145213       1.79779395       6.89695136
Ti       4.53591017       2.75511654      -0.01224197
Ti       4.72697468       4.43614352       2.32797259
Ti       4.59205196       2.76911147       4.63783186
Al       4.73953446       4.52395375       6.87829851
24
Lattice="9.114883352561886 0.16779820101966025 -0.01729989675956314 -2.9452178269431184 5.278124797971485 0.008709884952702574 -0.018724136169835204 0.006737385411941632 9.164621779294366" Properties=species:S:1:pos:R:3 n_minim_iter=6 stress="0.05200312035684817 -0.0017674045871871476 -0.0006194456813193933 -0.0017674045871871476 0.05000584262786402 -0.0012544913319164838 -0.0006194456813193933 -0.0012544913319164838 0.053801331262909265" pbc="T T T"
Ti      -0.09389637       0.08543673       0.01668043
Ti       0.08081323       1.73906517       2.30152881
Ti      -0.00755156       0.05261899       4.57314933
Ti       0.06049905       1.75939443       6.85174660
Ti      -1.53160269       2.61740460       0.04493597
Al      -1.36392667       4.40379980       2.25665331
Ti      -1.50767520       2.69761302       4.55587263
Ti      -1.41549199       4.38342663       6.87190434
Ti       2.97967977       0.16290490      -0.01418220
Ti       3.15809704       1.82144904       2.31240493
Ti       2.94855197       0.06875679       4.57813697
Ti       3.12001797       1.86428629       6.82741393
Ti       1.52981033       2.72031884       0.02742079
V        1.50759401       4.47443812       2.25924795
Ti       1.49849211       2.74366852       4.53846832
Ti       1.66803226       4.48176862       6.88279497
Al       5.99895483       0.12783163       0.09632680
Ti       6.15983616       1.91642118       2.30070846
Ti       5.96498497       0.07000245       4.54024716
Ti       6.17180268       1.77904259       6.86338405
Ti       4.53401907       2.74955431      -0.03115914
Ti       4.71311944       4.43010018       2.29951249
Ti       4.57414207       2.75023936       4.60826044
Al       4.70322863       4.50846906       6.84577179
24
Lattice="9.095524209809547 0.17113174153099828 -0.010405525479234881 -2.9377096245864527 5.296617468659179 0.01490278078425792 -0.012112285222141271 0.021223341372026003 9.150606105868022" Properties=species:S:1:pos:R:3 n_minim_iter=7 stress="0.0496341401174061 -0.0008392431116910658 6.720276880945838e-05 -0.0008392431116910658 0.052529136990994645 0.0003659584098629938 6.720276880945838e-05 0.0003659584098629938 0.05112425711532641" pbc="T T T"
Ti      -0.09095358       0.08552126       0.01744047
Ti       0.07898770       1.74999677       2.30114207
Ti       0.00034256       0.05870722       4.56544272
Ti       0.06473820       1.77863336       6.84373091
Ti      -1.52072030       2.62270288       0.04705211
Al      -1.36062992       4.42391597       2.25867905
Ti      -1.49509876       2.71082324       4.55208430
Ti      -1.40809209       4.41087849       6.86720316
Ti       2.97501914       0.16417989      -0.01276312
Ti       3.15062324       1.83432579       2.31423497
Ti       2.94910158       0.07665408       4.57361914
Ti       3.11503860       1.88503839       6.82120604
Ti       1.53033478       2.72872981       0.03356073
V        1.49627967       4.49815818       2.26356531
Ti       1.50115918       2.75995130       4.53597847
Ti       1.66832635       4.50978705       6.88106611
Al       5.98746357       0.13002294       0.10228864
Ti       6.14551793       1.93304066       2.30598922
Ti       5.95866328       0.07610680       4.53760460
Ti       6.16173791       1.79965899       6.85995936
Ti       4.52589614       2.76042162      -0.02262015
Ti       4.70530177       4.45257549       2.30630570
Ti       4.56988587       2.76629522       4.60861469
Al       4.69651167       4.53829929       6.84597998
24
Lattice="9.113806247097408 0.18589632995845584 -0.00959704007878383 -2.9344995213264196 5.284368014175644 0.014069967207007376 -0.011273832878616143 0.020191069205090686 9.145344815628755" Properties=species:S:1:pos:R:3 n_minim_iter=8 stress="0.05106037361028149 0.0007311486604195087 0.0001210889584729506 0.0007311486604195087 0.051551554946204815 0.00039251928763157375 0.0001210889584729506 0.00039251928763157375 0.05014355154605439" pbc="T T T"
Ti      -0.08978368       0.08487491       0.01744782
Ti       0.08079421       1.74765352       2.29967086
Ti       0.00281616       0.05741921       4.56279771
Ti       0.06807245       1.77626302       6.83952129
Ti      -1.51670174       2.61512995       0.04630204
Al      -1.35696462       4.41543481       2.25668844
Ti      -1.49094316       2.70289075       4.54901321
Ti      -1.40372358       4.40186871       6.86258084
Ti       2.98200379       0.16880149      -0.01332068
Ti       3.15871331       1.83786841       2.31295939
Ti       2.95704711       0.08060101       4.57164682
Ti       3.12354616       1.88764319       6.81699231
Ti       1.53920694       2.72671206       0.03360529
V        1.50374580       4.49479425       2.26209634
Ti       1.51004857       2.75757282       4.53306166
Ti       1.67930461       4.50572378       6.87684439
Al       6.00020908       0.13962101       0.10306732
Ti       6.15988989       1.94177753       2.30521542
Ti       5.97220886       0.08413348       4.53564814
Ti       6.17637683       1.80704414       6.85649299
Ti       4.53996862       2.76408518      -0.02251138
Ti       4.72196498       4.45443587       2.30487868
Ti       4.58471223       2.76863531       4.60651345
Al       4.71320112       4.53945805       6.84201826
24
Lattice="9.132128476033188 0.16752826989234687 -0.012808345075410501 -2.9506919213120217 5.274072037539707 0.009678003403987893 -0.014308976543563525 0.010854741469689453 9.154417786081886" Properties=species:S:1:pos:R:3 n_minim_iter=9 stress="0.05205811135136059 -2.2825701982754663e-05 -0.0003152480708786666 -2.2825701982754663e-05 0.050042175381198664 -0.0007494764319314336 -0.0003152480708786666 -0.0007494764319314336 0.05263896455583115" pbc="T T T"
Ti      -0.08478290       0.07826083       0.01386312
Ti       0.07188538       1.73900583       2.29879551
Ti       0.00888450       0.04701307       4.57161666
Ti       0.06097788       1.76615792       6.84465839
Ti      -1.52239026       2.60792944       0.04420850
Al      -1.37954180       4.40225726       2.25568075
Ti      -1.49596174       2.69099304       4.55060668
Ti      -1.42509407       4.38368532       6.86450481
Ti       2.99230403       0.16136807      -0.02227379
Ti       3.15252463       1.83562002       2.31088724
Ti       2.96817994       0.06647338       4.57990391
Ti       3.12017184       1.87201007       6.81968785
Ti       1.53964030       2.71423852       0.02963177
V        1.50271356       4.46862577       2.26402878
Ti       1.50872281       2.73998409       4.53688114
Ti       1.67373703       4.48561339       6.87720906
Al       6.01677770       0.12640436       0.09814033
Ti       6.16470021       1.92577282       2.30009142
Ti       5.98471794       0.06473589       4.54032487
Ti       6.17562297       1.78449240       6.86216850
Ti       4.54540947       2.74946831      -0.03186711
Ti       4.71793649       4.43313892       2.30078505
Ti       4.58953306       2.74631373       4.61504216
Al       4.71081208       4.51245806       6.84241995
24
Lattice="9.141425019754228 0.14893769251771038 -0.010794531966517222 -2.9646314387721495 5.279489245745046 0.011163345500455533 -0.012421424925107206 0.01455280011465706 9.14581855777946" Properties=species:S:1:pos:R:3 n_minim_iter=10 stress="0.05151553086987056 -0.0001956554253119236 -8.283090557301771e-05 -0.0001956554253119236 0.05021318563840822 -0.0004175054821103727 -8.283090557301771e-05 -0.0004175054821103727 0.05147331634713617" pbc="T T T"
Ti      -0.07786664       0.07345377       0.01223567
Ti       0.06078601       1.74009971       2.29689694
Ti       0.02075284       0.04308415       4.56921837
Ti       0.05655034       1.77268878       6.83862286
Ti      -1.51958552       2.60465033       0.04413764
Al      -1.39865872       4.40682154       2.25465463
Ti      -1.49246795       2.68997684       4.54675006
Ti      -1.44142056       4.38944111       6.85882735
Ti       3.00043639       0.15405064      -0.02679929
Ti       3.14382535       1.83905617       2.30944169
Ti       2.98092364       0.05917995       4.57902526
Ti       3.11397383       1.87284877       6.81295697
Ti       1.54127901       2.70760870       0.03127410
V        1.48624972       4.46545547       2.26626100
Ti       1.50968927       2.73550603       4.53467107
Ti       1.66630014       4.48731261       6.87280741
Al       6.02735790       0.11316511       0.09955811
Ti       6.16098543       1.92180386       2.29942474
Ti       5.99684906       0.04909427       4.53834889
Ti       6.17180861       1.77769799       6.85915754
Ti       4.54676322       2.74084747      -0.03178815
Ti       4.71036768       4.42809966       2.30120585
Ti       4.59326401       2.73512718       4.61741683
Al       4.70367846       4.50889301       6.83894593
24
Lattice="9.141392103017838 0.14079506566984923 -0.009757856181676442 -2.9695258360563668 5.284725917370373 0.013260222916993967 -0.011510667400258173 0.018757119165387966 9.141280057750036" Properties=species:S:1:pos:R:3 n_minim_iter=11 stress="0.050675806827314124 2.73352498384039e-05 1.994829166514245e-05 2.73352498384039e-05 0.05079402084781718 8.294441192081576e-05 1.994829166514245e-05 8.294441192081576e-05 0.05066075665234997" pbc="T T T"
Ti      -0.07289701       0.06949720       0.01079343
Ti       0.05371663       1.74235305       2.29623728
Ti       0.02872420       0.04066499       4.56821473
Ti       0.05404440       1.77956349       6.83592796
Ti      -1.51616230       2.60351774       0.04491505
Al      -1.40768070       4.41299705       2.25482989
Ti      -1.48885348       2.69109858       4.54547603
Ti      -1.44983000       4.39608896       6.85691078
Ti       3.00430875       0.15008931      -0.02831804
Ti       3.13716985       1.84324072       2.30901895
Ti       2.98713773       0.05616283       4.57792485
Ti       3.10841607       1.87688364       6.81007752
Ti       1.54238598       2.70552132       0.03264015
V        1.47700112       4.46752280       2.26818481
Ti       1.51037768       2.73543620       4.53449667
Ti       1.66190802       4.49330278       6.87169446
Al       6.03043415       0.10676380       0.10036764
Ti       6.15434127       1.92338131       2.29937049
Ti       6.00072014       0.04276246       4.53718779
Ti       6.16529997       1.77865638       6.85793951
Ti       4.54585515       2.73863547      -0.03103177
Ti       4.70331832       4.43021308       2.30263165
Ti       4.59389326       2.73246660       4.61904602
Al       4.69715796       4.51335110       6.83851354
24
Lattice="9.150013440757501 0.11647747570177623 -0.008780513852671184 -2.9866601502355787 5.292369617965296 0.015478646455339033 -0.01071051947697045 0.023164856869457757 9.132809788249594" Properties=species:S:1:pos:R:3 n_minim_iter=12 stress="0.04936477268585098 8.785073520671522e-05 0.0001368217440281615 8.785073520671522e-05 0.051640885090485 0.0005803204802163753 0.0001368217440281615 0.0005803204802163753 0.04944359489448893" pbc="T T T"
Ti      -0.06035641       0.05674482       0.00594610
Ti       0.03523917       1.74433984       2.29417296
Ti       0.04703086       0.02919880       4.56680923
Ti       0.04607423       1.78976870       6.83096116
Ti      -1.51538612       2.60060993       0.04684894
Al      -1.42820240       4.42520755       2.25207801
Ti      -1.48853707       2.68985267       4.54258551
Ti      -1.47457909       4.40164336       6.85203372
Ti       3.01798084       0.13659784      -0.02517056
Ti       3.12655836       1.84274787       2.30731521
Ti       3.00286751       0.04274067       4.57122983
Ti       3.09780585       1.87642379       6.80566519
Ti       1.54385482       2.69718854       0.03324990
V        1.46024075       4.46690877       2.26729681
Ti       1.51118363       2.72794352       4.53428765
Ti       1.64995178       4.49798634       6.86828934
Al       6.04376819       0.08656659       0.10144769
Ti       6.14063994       1.91888305       2.29743026
Ti       6.01448871       0.02473825       4.53366726
Ti       6.15338406       1.77295716       6.85365772
Ti       4.54693213       2.72742938      -0.02993364
Ti       4.68582682       4.42755715       2.30411413
Ti       4.59847654       2.71980632       4.61736042
Al       4.68186800       4.51547246       6.83678024
24
Lattice="9.158619781731156 0.12658554650270912 -0.009615588979808555 -2.9831108033367135 5.280035632979508 0.012461939026370258 -0.01137712794392043 0.01746284038000802 9.139847155043839" Properties=species:S:1:pos:R:3 n_minim_iter=13 stress="0.050902027567825914 2.529578433319773e-05 -6.66214043170395e-07 2.529578433319773e-05 0.05068263740159448 -6.391492895143812e-05 -6.66214043170395e-07 -6.391492895143812e-05 0.05110879719128508" pbc="T T T"
Ti      -0.06376451       0.05545921       0.00521546
Ti       0.04189747       1.73963721       2.29479201
Ti       0.04007344       0.02645909       4.56991491
Ti       0.04883980       1.78017890       6.83579835
Ti      -1.52513459       2.60066108       0.04732059
Al      -1.41613763       4.41644400       2.25099864
Ti      -1.49841490       2.68624162       4.54458719
Ti      -1.46742404       4.38635550       6.85537333
Ti       3.01957926       0.13809552      -0.01778303
Ti       3.13908981       1.83352124       2.30815368
Ti       2.99914237       0.04270099       4.56982618
Ti       3.10839089       1.86750790       6.81264208
Ti       1.54351894       2.69685869       0.03041280
V        1.48299393       4.45901327       2.26388164
Ti       1.51271323       2.72355312       4.53696320
Ti       1.65811189       4.48764095       6.87061029
Al       6.04771194       0.09239192       0.09933472
Ti       6.15056357       1.91472840       2.29659795
Ti       6.01577442       0.03499466       4.53609647
Ti       6.16439129       1.77260602       6.85606351
Ti       4.55316576       2.72790569      -0.03059996
Ti       4.69486479       4.42343159       2.30357501
Ti       4.60392793       2.72279675       4.61439005
Al       4.69305586       4.50981401       6.83933318
24
Lattice="9.166461359486467 0.11768922779102882 -0.009697556806356214 -2.990769284191975 5.279829441958709 0.012586418361918695 -0.011496519570678933 0.017643994282194344 9.137246376480116" Properties=species:S:1:pos:R:3 n_minim_iter=14 stress="0.05083353989969715 -9.01154682491237e-06 -1.5277859891986052e-05 -9.01154682491237e-06 0.05067502871567887 -3.51854193153994e-05 -1.5277859891986052e-05 -3.51854193153994e-05 0.050853718072432226" pbc="T T T"
Ti      -0.05932394       0.05018573       0.00368970
Ti       0.03548894       1.73938145       2.29395297
Ti       0.04602967       0.02083317       4.56924853
Ti       0.04556447       1.78183600       6.83392466
Ti      -1.52709590       2.59868104       0.04818797
Al      -1.42289413       4.41865814       2.24954711
Ti      -1.50120961       2.68424322       4.54308471
Ti      -1.47650669       4.38468502       6.85355475
Ti       3.02631080       0.13234782      -0.01540598
Ti       3.13806745       1.83029076       2.30753445
Ti       3.00546160       0.03647120       4.56650075
Ti       3.10648640       1.86421287       6.81152479
Ti       1.54444497       2.69209337       0.03008713
V        1.48044065       4.45615147       2.26265804
Ti       1.51345243       2.71843721       4.53648250
Ti       1.65415285       4.48569201       6.86897385
Al       6.05568892       0.08484969       0.09895908
Ti       6.14814293       1.91106803       2.29542917
Ti       6.02323119       0.02901670       4.53472271
Ti       6.16318571       1.76937618       6.85400351
Ti       4.55583928       2.72216533      -0.03029961
Ti       4.69069829       4.42017312       2.30350332
Ti       4.60768242       2.71713969       4.61256615
Al       4.68912095       4.50754430       6.83814074
24
Lattice="9.178504292025016 0.10431948828400424 -0.00953841403789316 -3.002345606416526 5.27904449529011 0.01260995225287646 -0.01138296569982058 0.01778621711289017 9.13394856026476" Properties=species:S:1:pos:R:3 n_minim_iter=15 stress="0.05067626651126955 -5.689422011515712e-06 -8.79606392957709e-06 -5.689422011515712e-06 0.05073287731204628 -2.9485607614168042e-05 -8.79606392957709e-06 -2.9485607614168042e-05 0.05058243911294365" pbc="T T T"
Ti      -0.05227114       0.04161230       0.00241326
Ti       0.02587338       1.73983151       2.29296807
Ti       0.05544756       0.01093444       4.56787315
Ti       0.04022625       1.78466767       6.83079653
Ti      -1.52997117       2.59476900       0.04983110
Al      -1.43295433       4.42182346       2.24793071
Ti      -1.50640503       2.68093500       4.54004244
Ti      -1.48875305       4.38217660       6.85142017
Ti       3.03701609       0.12262363      -0.01229417
Ti       3.13702280       1.82479792       2.30733935
Ti       3.01522262       0.02587151       4.56199619
Ti       3.10359607       1.85815412       6.81037617
Ti       1.54631552       2.68326058       0.02987509
V        1.47887648       4.45130270       2.26183191
Ti       1.51509528       2.70975150       4.53534456
Ti       1.64752268       4.48204271       6.86680963
Al       6.06833004       0.07371033       0.09753678
Ti       6.14354573       1.90579336       2.29406683
Ti       6.03464331       0.02096407       4.53355616
Ti       6.16140640       1.76628866       6.85149402
Ti       4.55991719       2.71312122      -0.02938946
Ti       4.68489621       4.41610010       2.30356379
Ti       4.61349833       2.70963011       4.61068152
Al       4.68202186       4.50401734       6.83654752
24
Lattice="9.182466736295142 0.1027255755994308 -0.00920831650442225 -3.0044677199273875 5.277161745064505 0.013070691299093568 -0.01108445858666698 0.01875666809508774 9.134127265016364" Properties=species:S:1:pos:R:3 n_minim_iter=16 stress="0.050690182098456195 -5.642332326414208e-05 3.315666146295698e-05 -5.642332326414208e-05 0.05062072605163587 0.00011642127399631186 3.315666146295698e-05 0.00011642127399631186 0.050575172188602094" pbc="T T T"
Ti      -0.05250647       0.04114413       0.00721641
Ti       0.02716103       1.74339750       2.29409076
Ti       0.05471206       0.00773616       4.56478812
Ti       0.03792404       1.78629798       6.82808387
Ti      -1.53047379       2.59111741       0.05120556
Al      -1.43323942       4.42039507       2.25039014
Ti      -1.51200313       2.68069166       4.53651722
Ti      -1.48354163       4.38361674       6.85290521
Ti       3.03892107       0.11844008      -0.01479122
Ti       3.14030717       1.82124545       2.30978504
Ti       3.01556612       0.02227588       4.56330039
Ti       3.10413752       1.85377220       6.81034927
Ti       1.54790218       2.67621155       0.03159056
V        1.48619808       4.44916903       2.26561726
Ti       1.51633575       2.70648206       4.53245204
Ti       1.64398133       4.47839500       6.86687324
Al       6.07160172       0.07413981       0.09392993
Ti       6.14292488       1.90499276       2.29523302
Ti       6.03629674       0.02455731       4.53555376
Ti       6.16438885       1.77240332       6.85184925
Ti       4.56058674       2.71019862      -0.02738776
Ti       4.68886350       4.41738011       2.30373367
Ti       4.61392158       2.71317009       4.61266323
Al       4.67860137       4.50197996       6.83595903
24
Lattice="9.184419278442824 0.10133321707541434 -0.00960420539469342 -3.005873252594945 5.276368452002844 0.012612683154087164 -0.011462860967345233 0.017750966677486144 9.134315865259415" Properties=species:S:1:pos:R:3 n_minim_iter=17 stress="0.05062606784803315 7.6186933405809735e-06 -1.1240863258454875e-05 7.6186933405809735e-06 0.050654570701319665 -1.273920619373881e-05 -1.1240863258454875e-05 -1.273920619373881e-05 0.05066527375353803" pbc="T T T"
Ti      -0.05169828       0.04002100       0.00809195
Ti       0.02633830       1.74427808       2.29426372
Ti       0.05557357       0.00485899       4.56429231
Ti       0.03615637       1.78620237       6.82721077
Ti      -1.52992055       2.58917509       0.05133455
Al      -1.43473304       4.42002224       2.25008715
Ti      -1.51369471       2.67911465       4.53532500
Ti      -1.48393986       4.38291524       6.85277038
Ti       3.04076230       0.11617682      -0.01543417
Ti       3.14051532       1.81999218       2.31002118
Ti       3.01673750       0.01942907       4.56353248
Ti       3.10313735       1.85125640       6.80989224
Ti       1.54903826       2.67312939       0.03164750
V        1.48758403       4.44781075       2.26576102
Ti       1.51706502       2.70387015       4.53153215
Ti       1.64216441       4.47587538       6.86629072
Al       6.07356212       0.07333074       0.09256334
Ti       6.14171289       1.90460784       2.29483800
Ti       6.03759691       0.02419969       4.53612022
Ti       6.16422191       1.77338166       6.85162335
Ti       4.56106980       2.70874538      -0.02762475
Ti       4.68901713       4.41742913       2.30296458
Ti       4.61445007       2.71284232       4.61278286
Al       4.67661324       4.50056573       6.83544379
24
Lattice="9.18985484446331 0.09799798545754575 -0.009506071751193204 -3.0094906040057725 5.274898052571378 0.012178910033964645 -0.011356864123620622 0.0170577792124415 9.133283643195371" Properties=species:S:1:pos:R:3 n_minim_iter=18 stress="0.050633234115349514 5.0269685501810666e-05 -2.7224089313083776e-05 5.0269685501810666e-05 0.050699627454707005 -9.519995085701417e-05 -2.7224089313083776e-05 -9.519995085701417e-05 0.05066878078469056" pbc="T T T"
Ti      -0.05111065       0.03842548       0.00885992
Ti       0.02597340       1.74664041       2.29486485
Ti       0.05654618      -0.00002148       4.56333063
Ti       0.03273208       1.78652867       6.82510575
Ti      -1.52858050       2.58531379       0.05140768
Al      -1.43802611       4.41974053       2.24840785
Ti      -1.51752550       2.67640714       4.53324271
Ti      -1.48515489       4.38306938       6.85158231
Ti       3.04494772       0.11103219      -0.01558616
Ti       3.14187154       1.81760476       2.31030336
Ti       3.01967977       0.01407367       4.56379866
Ti       3.10225127       1.84669274       6.80804637
Ti       1.55164172       2.66687005       0.03230515
V        1.49060605       4.44542084       2.26527201
Ti       1.51948342       2.69915305       4.53039423
Ti       1.64002461       4.47055601       6.86486903
Al       6.07759545       0.07135369       0.09080384
Ti       6.14114069       1.90356028       2.29420816
Ti       6.04123577       0.02411953       4.53763483
Ti       6.16620525       1.77592201       6.85132867
Ti       4.56198416       2.70573298      -0.02784902
Ti       4.68992392       4.41742348       2.30198151
Ti       4.61626658       2.71285495       4.61270847
Al       4.67513056       4.49868461       6.83559771
24
Lattice="9.190115280486392 0.09863744659415774 -0.008830172085886892 -3.0091871123705 5.274513319712869 0.012306463840113128 -0.010683922898737482 0.01764402322427785 9.13333440679318" Properties=species:S:1:pos:R:3 n_minim_iter=19 stress="0.050721861118806444 2.4033298086795544e-05 -5.480883952599661e-06 2.4033298086795544e-05 0.05075513166604022 -2.1786405531779338e-05 -5.480883952599661e-06 -2.1786405531779338e-05 0.050812017338799774" pbc="T T T"
Ti      -0.05290004       0.03954208       0.00662771
Ti       0.02837007       1.74747635       2.29569894
Ti       0.05481551       0.00030618       4.56506952
Ti       0.03228761       1.78618682       6.82617408
Ti      -1.52656951       2.58480077       0.05053999
Al      -1.43819329       4.42007176       2.24597757
Ti      -1.51771694       2.67563679       4.53492856
Ti      -1.48615051       4.38446161       6.85099251
Ti       3.04533268       0.11017298      -0.01372519
Ti       3.14262356       1.81827906       2.30980342
Ti       3.01979406       0.01392622       4.56424741
Ti       3.10286749       1.84675847       6.80749594
Ti       1.55265188       2.66674054       0.03254358
V        1.49080415       4.44581620       2.26321262
Ti       1.52132527       2.69926014       4.53268107
Ti       1.64278416       4.46870077       6.86537292
Al       6.07601213       0.07164591       0.09217047
Ti       6.14285576       1.90404567       2.29402232
Ti       6.04112164       0.02542770       4.53913703
Ti       6.16828491       1.77689821       6.85288791
Ti       4.56090228       2.70637293      -0.02863940
Ti       4.68983560       4.41782604       2.30228815
Ti       4.61654502       2.71393553       4.61238811
Al       4.67868111       4.50026721       6.83876407
24
Lattice="9.192855182699777 0.09653904420926722 -0.008476754510090563 -3.0112857655578122 5.274849103310975 0.01264067107730267 -0.010357816243756023 0.018417925157500275 9.131197247438983" Properties=species:S:1:pos:R:3 n_minim_iter=20 stress="0.05081848966422153 -9.36529391800769e-05 1.884527382985509e-05 -9.36529391800769e-05 0.05069391085594046 8.939290476478169e-05 1.884527382985509e-05 8.939290476478169e-05 0.05045819325648548" pbc="T T T"
Ti      -0.05294705       0.03978868       0.00679535
Ti       0.02824913       1.74813267       2.29539408
Ti       0.05473171       0.00012469       4.56405032
Ti       0.03186203       1.78690353       6.82438339
Ti      -1.52665807       2.58468496       0.05052931
Al      -1.44031317       4.42053862       2.24597357
Ti      -1.51908954       2.67595899       4.53379616
Ti      -1.48784794       4.38548420       6.84973298
Ti       3.04630426       0.10905828      -0.01381751
Ti       3.14360140       1.81771966       2.30969678
Ti       3.02085010       0.01273731       4.56242761
Ti       3.10382017       1.84606109       6.80628296
Ti       1.55289772       2.66554559       0.03260870
V        1.48989575       4.44546777       2.26352799
Ti       1.52204308       2.69892547       4.53205627
Ti       1.64292790       4.46830357       6.86436863
Al       6.07766584       0.07029629       0.09232206
Ti       6.14448570       1.90316465       2.29385469
Ti       6.04329372       0.02472304       4.53829243
Ti       6.17032945       1.77635708       6.85222508
Ti       4.56117025       2.70489264      -0.02812764
Ti       4.68998276       4.41710719       2.30229659
Ti       4.61757940       2.71349137       4.61163360
Al       4.67905083       4.49982646       6.83776215
24
Lattice="9.191690585557687 0.09825506311373791 -0.008304893548992536 -3.009888097510991 5.27389328089922 0.012259626480616017 -0.010157302685734327 0.017848548082938735 9.133047960326286" Properties=species:S:1:pos:R:3 n_minim_iter=21 stress="0.0507310646488419 7.639180269488089e-06 2.9384146864185264e-05 7.639180269488089e-06 0.05076435779111708 1.7630833486705e-05 2.9384146864185264e-05 1.7630833486705e-05 0.05076197153431114" pbc="T T T"
Ti      -0.05311460       0.04022642       0.00690413
Ti       0.02913051       1.74881383       2.29583141
Ti       0.05400097      -0.00102570       4.56521322
Ti       0.03202521       1.78664911       6.82513134
Ti      -1.52478900       2.58418780       0.05007073
Al      -1.44070101       4.42023604       2.24648355
Ti      -1.51954987       2.67508163       4.53417169
Ti      -1.48779499       4.38500996       6.85083678
Ti       3.04589518       0.10896392      -0.01403579
Ti       3.14444751       1.81818541       2.31034781
Ti       3.02029330       0.01141634       4.56174052
Ti       3.10475137       1.84513763       6.80791640
Ti       1.55358178       2.66476332       0.03194465
V        1.49047206       4.44504947       2.26450687
Ti       1.52370614       2.69856518       4.53333182
Ti       1.64481667       4.46751050       6.86577466
Al       6.07654175       0.07137840       0.09239452
Ti       6.14476827       1.90454667       2.29411921
Ti       6.04278782       0.02623837       4.53922314
Ti       6.17084330       1.77732753       6.85469584
Ti       4.56012079       2.70511295      -0.02812637
Ti       4.68949192       4.41815471       2.30264961
Ti       4.61779002       2.71462549       4.61234045
Al       4.67928208       4.50047236       6.83904936
