24
Lattice="9.348184419365843 0.06671022901618771 -0.014483782529910397 -3.08061563320436 5.406460241593623 0.020799101196678695 -0.016396950518118937 0.029055026391496694 9.362960803414756" Properties=species:S:1:pos:R:3 n_minim_iter=1 energy=-34153.876912355845 free_energy=-34153.876912355845 pbc="T T T"
Ti      -0.04707614       0.05677479       0.01737870
Ti      -0.00179472       1.77868335       2.36535879
Ti       0.06482128       0.06550799       4.65916970
Ti       0.03094068       1.82709980       6.99209108
Ti      -1.53166940       2.65258842       0.05567369
Al      -1.48908661       4.52228576       2.31141611
Ti      -1.55745613       2.69099057       4.63943090
Ti      -1.52157183       4.50453464       7.01482876
Ti       3.09831411       0.11284116      -0.02843882
Ti       3.18191872       1.82704851       2.36266886
Ti       3.08775249       0.07138991       4.67161478
Ti       3.15137359       1.87296068       6.96277909
Ti       1.56755151       2.72209371       0.06127129
V        1.44946009       4.54120840       2.35104331
Ti       1.57942224       2.71847139       4.62375254
Ti       1.64732935       4.56485629       7.04451662
Al       6.18622839       0.05340699       0.13457999
Ti       6.22841688       1.95199963       2.35968222
Ti       6.15770920       0.06799228       4.63931001
Ti       6.25240403       1.78953795       7.02859298
Ti       4.61939659       2.76404330      -0.01164524
Ti       4.74866402       4.49678722       2.38631867
Ti       4.65381523       2.71992465       4.70970252
Al       4.73911017       4.57570975       6.98835970
24
Lattice="9.31401642125288 0.05674943889583977 -0.005244028976361301 -3.074981188404373 5.389330242305312 0.016038671027868122 -0.0069823582996499526 0.025797970076732037 9.432678434633388" Properties=species:S:1:pos:R:3 n_minim_iter=2 stress="0.08406688171649056 -0.0002052751746609536 6.736144698632758e-05 -0.0002052751746609536 0.08379517749954979 -5.7387242603526445e-05 6.736144698632758e-05 -5.7387242603526445e-05 0.08375685939522495" pbc="T T T"
Ti      -0.04688373       0.05666385       0.01744997
Ti      -0.00121441       1.77121927       2.38235303
Ti       0.06921375       0.06375538       4.69380618
Ti       0.03596713       1.81779384       7.04360083
Ti      -1.52872232       2.64421694       0.05371286
Al      -1.48613638       4.50602544       2.32567414
Ti      -1.54994637       2.68084223       4.67140922
Ti      -1.51364425       4.48689609       7.06406442
Ti       3.08689237       0.10925496      -0.02569948
Ti       3.17078291       1.81594749       2.38286005
Ti       3.08117615       0.06655224       4.70948340
Ti       3.14490905       1.86024295       7.01709409
Ti       1.55908902       2.71011342       0.06243765
V        1.44167922       4.52181913       2.36844488
Ti       1.57551850       2.70489117       4.65879151
Ti       1.64360263       4.54363771       7.09710536
Al       6.16378454       0.04672095       0.14198033
Ti       6.20598974       1.93741787       2.38293507
Ti       6.13990699       0.05992715       4.68001772
Ti       6.23474420       1.77397279       7.08654894
Ti       4.59959438       2.74875997      -0.00790388
Ti       4.72913793       4.47417251       2.40742561
Ti       4.63871888       2.70309821       4.74833589
Al       4.72398830       4.55121467       7.04362055
24
Lattice="9.308815896918818 0.06246019558530457 -0.007139024931588309 -3.0699623576340755 5.38876132124911 0.017600515359064144 -0.008860246593189146 0.02740285162371835 9.43570180600868" Properties=species:S:1:pos:R:3 n_minim_iter=3 stress="0.0834911747040946 0.00037847456254198685 -3.869797704712903e-05 0.00037847456254198685 0.08400281804472431 3.611204092592713e-05 -3.869797704712903e-05 3.611204092592713e-05 0.0838200479167993" pbc="T T T"
Ti      -0.04670203       0.05676246       0.01758178
Ti      -0.00063250       1.77206185       2.38335302
Ti       0.06834261       0.06486623       4.69501738
Ti       0.03561813       1.81929149       7.04616456
Ti      -1.52607404       2.64396202       0.05466286
Al      -1.48314524       4.50659707       2.32758890
Ti      -1.54838434       2.68111163       4.67334335
Ti      -1.51147024       4.48844688       7.06740314
Ti       3.08522479       0.11129269      -0.02652861
Ti       3.16953721       1.81861266       2.38330138
Ti       3.07868365       0.06962592       4.71034352
Ti       3.14280356       1.86364551       7.01886321
Ti       1.55991119       2.71150151       0.06276463
V        1.44292510       4.52418450       2.36960594
Ti       1.57560845       2.70705668       4.66021993
Ti       1.64385416       4.54707653       7.09982792
Al       6.16033050       0.05054658       0.14138488
Ti       6.20309754       1.94205684       2.38299284
Ti       6.13574926       0.06479599       4.68034387
Ti       6.23083982       1.77959726       7.08769098
Ti       4.59870050       2.75215625      -0.00805093
Ti       4.72870684       4.47855624       2.40815575
Ti       4.63675356       2.70712156       4.74894023
Al       4.72261889       4.55628498       7.04571997
24
Lattice="9.307598592418868 0.05565627861662626 -0.02174582376161984 -3.073469838598119 5.382969027835778 0.028915479020478682 -0.02356482381877731 0.03853992690323068 9.451061739961355" Properties=species:S:1:pos:R:3 n_minim_iter=4 stress="0.08301627525228701 -0.00013025413655236425 -0.0009783602139592385 -0.00013025413655236425 0.08188887827456752 0.0006582013042815522 -0.0009783602139592385 0.0006582013042815522 0.08355875060658953" pbc="T T T"
Ti      -0.04485419       0.05881432       0.01957985
Ti      -0.00560615       1.77219520       2.38814382
Ti       0.06205467       0.07488008       4.69766198
Ti       0.02308067       1.82179022       7.05976307
Ti      -1.52490230       2.64180359       0.06325836
Al      -1.49177466       4.50335221       2.34067446
Ti      -1.55767226       2.67988353       4.68065130
Ti      -1.52522257       4.49442060       7.08658809
Ti       3.08443704       0.11117568      -0.03489924
Ti       3.16264673       1.81420720       2.38455474
Ti       3.07323421       0.07961532       4.71272855
Ti       3.12933495       1.86394220       7.02480955
Ti       1.55845997       2.70253150       0.06647293
V        1.43167625       4.51891403       2.37515791
Ti       1.57047585       2.70319669       4.66485223
Ti       1.62657359       4.54959102       7.11434069
Al       6.15922722       0.04674759       0.14260839
Ti       6.19556996       1.93675539       2.38332597
Ti       6.13094211       0.07127992       4.67961382
Ti       6.21701185       1.78368125       7.08880267
Ti       4.59608117       2.74339566      -0.00642524
Ti       4.72094922       4.47108521       2.41278264
Ti       4.62567708       2.70065330       4.74511222
Al       4.70671943       4.55210714       7.05559068
24
Lattice="9.296128290481542 0.050059194210347706 -0.004792097805061612 -3.0729514237095983 5.389243970689772 0.017664374051613908 -0.006506194442887973 0.02879289090638488 9.454821821439674" Properties=species:S:1:pos:R:3 n_minim_iter=5 stress="0.08156410694619305 -0.0004099040426980501 0.00011628695249438145 -0.0004099040426980501 0.08193321451898229 5.0771279692717756e-05 0.00011628695249438145 5.0771279692717756e-05 0.08295753739698644" pbc="T T T"
Ti      -0.04293585       0.06087124       0.02127237
Ti      -0.00237259       1.77116047       2.38601481
Ti       0.07143317       0.07468296       4.69471255
Ti       0.03438522       1.81285240       7.06073931
Ti      -1.52157946       2.64537576       0.06068600
Al      -1.49039685       4.50526415       2.33570932
Ti      -1.54927101       2.67417447       4.67106892
Ti      -1.51308982       4.49499024       7.08195594
Ti       3.08018569       0.11161891      -0.03288955
Ti       3.16046773       1.80908573       2.38952291
Ti       3.08020446       0.07971666       4.71963754
Ti       3.13627869       1.85336694       7.02864659
Ti       1.55579410       2.69987916       0.06937558
V        1.42730114       4.51898790       2.37256935
Ti       1.57957714       2.69533420       4.66312285
Ti       1.63196920       4.54713680       7.11566765
Al       6.15192084       0.04336353       0.16430680
Ti       6.18945673       1.93139135       2.39742556
Ti       6.13514138       0.06825319       4.69394090
Ti       6.22036128       1.77679893       7.09857564
Ti       4.58864908       2.74159584       0.00468334
Ti       4.71662888       4.46912918       2.42058284
Ti       4.62580379       2.69042778       4.74534621
Al       4.70986260       4.54334775       7.06264045
24
Lattice="9.302768593132445 0.054708343151370666 -0.0036848464271979162 -3.0724275680662347 5.385870990480405 0.015581927450221316 -0.005378662684287657 0.025822820253982786 9.451292981035014" Properties=species:S:1:pos:R:3 n_minim_iter=6 stress="0.08232300119212423 7.478392267946815e-05 0.0001878517921235546 7.478392267946815e-05 0.08170517503107265 -0.00014600064619525477 0.0001878517921235546 -0.00014600064619525477 0.08282228824173199" pbc="T T T"
Ti      -0.04275833       0.06102679       0.02146111
Ti      -0.00123929       1.76979006       2.38438247
Ti       0.07214918       0.07393145       4.69240832
Ti       0.03608067       1.80960053       7.05749130
Ti      -1.52097451       2.64372133       0.05998995
Al      -1.48907144       4.50222493       2.33335019
Ti      -1.54851017       2.67038567       4.66771063
Ti      -1.51108273       4.49096807       7.07770313
Ti       3.08239091       0.11337738      -0.03284226
Ti       3.16363804       1.80896265       2.38831816
Ti       3.08326563       0.08069411       4.71807739
Ti       3.14022176       1.85172986       7.02545558
Ti       1.55834180       2.69934846       0.06902964
V        1.43029201       4.51737854       2.37031015
Ti       1.58316684       2.69309754       4.66031158
Ti       1.63604214       4.54453555       7.11189746
Al       6.15634956       0.04641787       0.16596111
Ti       6.19493741       1.93301786       2.39706649
Ti       6.14058395       0.07067949       4.69311419
Ti       6.22639095       1.77727892       7.09593334
Ti       4.59332550       2.74292851       0.00502373
Ti       4.72250995       4.46913964       2.41921299
Ti       4.63087373       2.68984564       4.74258502
Al       4.71621446       4.54165632       7.05911250
24
Lattice="9.304505030976909 0.053259304855726164 -0.00968679221692357 -3.07391013925676 5.394757018329134 0.018463814861665373 -0.011434919310326974 0.027478299179148118 9.434860177809313" Properties=species:S:1:pos:R:3 n_minim_iter=7 stress="0.08291135889748999 1.4378480323288839e-05 -0.0002091798277790388 1.4378480323288839e-05 0.08339987294994114 -8.24143043740991e-05 -0.0002091798277790388 -8.24143043740991e-05 0.08224748253091567" pbc="T T T"
Ti      -0.04258401       0.06139640       0.02193855
Ti      -0.00318139       1.77292170       2.38003195
Ti       0.06909525       0.07673707       4.68315212
Ti       0.03104463       1.81247324       7.04529331
Ti      -1.52102128       2.64797207       0.06205677
Al      -1.49170791       4.50985913       2.33109173
Ti      -1.55234637       2.67365235       4.66006800
Ti      -1.51676136       4.50076151       7.06706940
Ti       3.08282277       0.11342178      -0.03506453
Ti       3.16163256       1.81075179       2.38176324
Ti       3.08136787       0.08342719       4.70730142
Ti       3.13605982       1.85442890       7.01062594
Ti       1.55819430       2.70269411       0.06912719
V        1.42683053       4.52442237       2.36594752
Ti       1.58140430       2.69591994       4.65080032
Ti       1.63090210       4.55361450       7.09976002
Al       6.15738185       0.04547251       0.16312278
Ti       6.19392484       1.93533060       2.38995427
Ti       6.14001262       0.07288183       4.68157532
Ti       6.22240986       1.78031116       7.07978851
Ti       4.59389361       2.74659809       0.00393666
Ti       4.72115149       4.47544062       2.41361746
Ti       4.62786844       2.69306445       4.73071402
Al       4.71161823       4.54841908       7.04429770
24
Lattice="9.305065390829318 0.05418530517828739 -0.0042620680836951315 -3.07352441175967 5.391958783306099 0.020274176682068875 -0.006037913297808528 0.03365784694426186 9.438674814225925" Properties=species:S:1:pos:R:3 n_minim_iter=8 stress="0.08288895245550364 0.00010089286209413779 0.00019657476232822784 0.00010089286209413779 0.08289766755009285 0.0003874151943045287 0.00019657476232822784 0.0003874151943045287 0.08237666820786743" pbc="T T T"
Ti      -0.04274367       0.06121342       0.02191944
Ti      -0.00172272       1.77362278       2.38209951
Ti       0.07156415       0.08006810       4.68535495
Ti       0.03517445       1.81611480       7.04925113
Ti      -1.52089935       2.64648237       0.06285165
Al      -1.48977901       4.50915557       2.33398349
Ti      -1.54949878       2.67492999       4.66327053
Ti      -1.51245043       4.50334981       7.07199716
Ti       3.08295748       0.11350073      -0.03282483
Ti       3.16320698       1.81165734       2.38538634
Ti       3.08416855       0.08697091       4.71085326
Ti       3.14061644       1.85848958       7.01649317
Ti       1.55850581       2.70196846       0.07178094
V        1.42863722       4.52400458       2.37092834
Ti       1.58451907       2.69757980       4.65552304
Ti       1.63582222       4.55651308       7.10681146
Al       6.15791452       0.04609013       0.16580625
Ti       6.19595382       1.93671599       2.39553833
Ti       6.14322987       0.07693681       4.68716842
Ti       6.22699696       1.78438489       7.08782933
Ti       4.59459613       2.74611401       0.00825652
Ti       4.72332515       4.47532839       2.42031880
Ti       4.63111788       2.69562322       4.73774255
Al       4.71646034       4.55143386       7.05269598
24
Lattice="9.300959614041096 0.0543155214278764 -0.006244275015490745 -3.072063075557371 5.385769482301208 0.015914101304363885 -0.007930372136991005 0.024933847222586226 9.453531837708882" Properties=species:S:1:pos:R:3 n_minim_iter=9 stress="0.08215734672557998 6.775162722183045e-05 -1.352480437070731e-05 6.775162722183045e-05 0.08140224604782055 -0.0002628465237639885 -1.352480437070731e-05 -0.0002628465237639885 0.08278018795808993" pbc="T T T"
Ti      -0.04325943       0.06062331       0.02179906
Ti      -0.00242220       1.76929673       2.38394814
Ti       0.06993247       0.07674713       4.69318829
Ti       0.03351292       1.80701133       7.05828729
Ti      -1.52041725       2.64294892       0.06055614
Al      -1.48889516       4.50187718       2.33326019
Ti      -1.54973699       2.66616069       4.66965338
Ti      -1.51341279       4.49244841       7.07919774
Ti       3.08148500       0.11300706      -0.03252163
Ti       3.16081328       1.80696153       2.38562625
Ti       3.08164566       0.08338784       4.71698607
Ti       3.13836146       1.84987064       7.02503966
Ti       1.55756212       2.69974242       0.06888760
V        1.42718556       4.51662558       2.37075347
Ti       1.58330922       2.68912938       4.66036835
Ti       1.63457605       4.54547604       7.11415887
Al       6.15533973       0.04571513       0.16202142
Ti       6.19299960       1.93264236       2.39548561
Ti       6.14023138       0.07407766       4.69362535
Ti       6.22278458       1.77482173       7.09726450
Ti       4.59307571       2.74403609       0.00439889
Ti       4.72096748       4.46779295       2.41912203
Ti       4.62807900       2.68879518       4.74354159
Al       4.71321634       4.53985967       7.05799936
24
Lattice="9.300681678551214 0.05226549642720771 -0.004792996630985635 -3.0732129925785014 5.39504008700065 0.020456336132675786 -0.006567900616634008 0.03368629046838178 9.43884341907376" Properties=species:S:1:pos:R:3 n_minim_iter=10 stress="0.08255460424891735 4.3594649635471254e-05 0.00013119047441801786 4.3594649635471254e-05 0.0827733405159951 0.0003032231579775877 0.00013119047441801786 0.0003032231579775877 0.08200116048078307" pbc="T T T"
Ti      -0.04336219       0.06081139       0.02286610
Ti      -0.00306770       1.77400338       2.38028056
Ti       0.06957103       0.08766263       4.68378855
Ti       0.03322920       1.81257166       7.04800766
Ti      -1.51943991       2.64675927       0.06419898
Al      -1.48935370       4.51124594       2.33340286
Ti      -1.55002677       2.66813613       4.66356420
Ti      -1.51395559       4.51100392       7.07191342
Ti       3.08092180       0.11291698      -0.03151616
Ti       3.15809531       1.80841662       2.38098918
Ti       3.08342677       0.09431618       4.70800591
Ti       3.13971028       1.85596905       7.01393912
Ti       1.55655506       2.70328117       0.07318743
V        1.42222766       4.52512149       2.37212990
Ti       1.58742275       2.69092158       4.65402940
Ti       1.63489523       4.56235567       7.10965419
Al       6.15540024       0.04414120       0.16335135
Ti       6.19216100       1.93644859       2.39533013
Ti       6.14500972       0.08514158       4.68938150
Ti       6.22237963       1.78154736       7.09017368
Ti       4.59335805       2.74885499       0.01075484
Ti       4.72028429       4.47495845       2.42263351
Ti       4.62684495       2.69413861       4.73871995
Al       4.71281564       4.55067561       7.05063319
24
Lattice="9.295032259373283 0.05113056138053201 -0.006007505706707456 -3.0720064161529135 5.39414247646073 0.018866420213815585 -0.007740963893173836 0.030225452837113136 9.446773535151623" Properties=species:S:1:pos:R:3 n_minim_iter=11 stress="0.08193084406425248 -3.014466085379845e-06 -1.318727016538316e-05 -3.014466085379845e-06 0.08188296943822466 -3.1641536410101285e-05 -1.318727016538316e-05 -3.1641536410101285e-05 0.08194525779145523" pbc="T T T"
Ti      -0.04430463       0.05991821       0.02328706
Ti      -0.00427525       1.77222469       2.38012502
Ti       0.06704556       0.09243868       4.68694403
Ti       0.03115898       1.80585051       7.05197153
Ti      -1.51829212       2.64517295       0.06390108
Al      -1.48853801       4.50896253       2.33330127
Ti      -1.55043941       2.65872505       4.66791315
Ti      -1.51515272       4.51214841       7.07617955
Ti       3.07874942       0.11215041      -0.03015986
Ti       3.15323378       1.80418064       2.37800266
Ti       3.08143041       0.09855077       4.70919275
Ti       3.13825373       1.85028643       7.01713047
Ti       1.55431124       2.70364758       0.07265856
V        1.41715184       4.52245032       2.37394163
Ti       1.58897024       2.68206106       4.65598989
Ti       1.63373643       4.56189029       7.11612697
Al       6.15200737       0.04268677       0.15908691
Ti       6.18783917       1.93449823       2.39489152
Ti       6.14490710       0.09091727       4.69472157
Ti       6.21685202       1.77499581       7.09778407
Ti       4.59174229       2.75009646       0.01044063
Ti       4.71659572       4.47131970       2.42404191
Ti       4.62209642       2.69014339       4.74355112
Al       4.70880345       4.54536692       7.05253242
24
Lattice="9.29222808664622 0.051591499948968715 -0.005558371258020104 -3.0708253193118358 5.3956384732757945 0.018931555101424646 -0.007287484850064506 0.030601192718401005 9.446750800527424" Properties=species:S:1:pos:R:3 n_minim_iter=12 stress="0.08180957580447913 -6.292780389084854e-05 -3.32019783397647e-05 -6.292780389084854e-05 0.08214890006635829 -4.660346331866621e-06 -3.32019783397647e-05 -4.660346331866621e-06 0.08217072082488339" pbc="T T T"
Ti      -0.04547914       0.05813444       0.02137251
Ti      -0.00324007       1.77194425       2.38059757
Ti       0.06541060       0.09374949       4.68806708
Ti       0.03236245       1.80580450       7.05185071
Ti      -1.51996671       2.64681917       0.06094960
Al      -1.48988424       4.50721137       2.33595963
Ti      -1.55041875       2.65904872       4.67083547
Ti      -1.51263977       4.51529549       7.07693719
Ti       3.07955571       0.11153371      -0.03009798
Ti       3.15467006       1.80764783       2.37862880
Ti       3.07970326       0.09780538       4.71020477
Ti       3.13953912       1.84945057       7.02033220
Ti       1.55148686       2.70739496       0.06935461
V        1.42049257       4.52366229       2.37735251
Ti       1.58722382       2.68401845       4.65730503
Ti       1.63237687       4.56289194       7.11477968
Al       6.14974108       0.04350135       0.15744667
Ti       6.18673290       1.93441165       2.39061696
Ti       6.14415010       0.09372453       4.69591967
Ti       6.21610014       1.77377924       7.10152687
Ti       4.59131832       2.75107840       0.00605796
Ti       4.71335280       4.47410345       2.42139986
Ti       4.62113307       2.69062909       4.74715307
Al       4.70988205       4.54968656       7.05364414
24
Lattice="9.291561151034879 0.05138153243804156 -0.0047249132851976666 -3.0707281981173176 5.396113609443419 0.0191301794914602 -0.006458078195260135 0.03142013336901225 9.4467237811066" Properties=species:S:1:pos:R:3 n_minim_iter=13 stress="0.08180676504931288 -2.4499441645943785e-05 9.76279142667724e-06 -2.4499441645943785e-05 0.08190416847487084 1.4332300595585093e-05 9.76279142667724e-06 1.4332300595585093e-05 0.08192134797025667" pbc="T T T"
Ti      -0.04548734       0.05800043       0.02143846
Ti      -0.00296941       1.77177179       2.37999248
Ti       0.06489872       0.09817797       4.68652970
Ti       0.03293901       1.80403446       7.05153175
Ti      -1.51950083       2.64737033       0.06110150
Al      -1.49078988       4.50643548       2.33752010
Ti      -1.55050043       2.65592472       4.67024166
Ti      -1.51148773       4.51942168       7.07739595
Ti       3.07971323       0.11180736      -0.03042404
Ti       3.15416163       1.80732739       2.37818760
Ti       3.08044248       0.10202852       4.70989660
Ti       3.14075568       1.84768376       7.02044364
Ti       1.55037103       2.70758080       0.06957045
V        1.41936768       4.52378236       2.37906592
Ti       1.58930721       2.68156043       4.65660912
Ti       1.63166451       4.56527533       7.11540640
Al       6.14914647       0.04348569       0.15998734
Ti       6.18602084       1.93397594       2.39074489
Ti       6.14684801       0.09927260       4.69790635
Ti       6.21600084       1.77371016       7.10343528
Ti       4.59159252       2.75139761       0.00726507
Ti       4.71228904       4.47443561       2.42255153
Ti       4.62056924       2.68884376       4.74700276
Al       4.71046169       4.55018477       7.05431611
24
Lattice="9.291650707221107 0.051521586797668925 -0.004743697815313113 -3.0706774279906073 5.396211887269306 0.019147109147755758 -0.006477287885947282 0.03144019799696832 9.446381382231284" Properties=species:S:1:pos:R:3 n_minim_iter=14 stress="0.08184890976825546 1.9797053649242894e-06 2.118641619321358e-06 1.9797053649242894e-06 0.08183486399128806 2.450942249997864e-06 2.118641619321358e-06 2.450942249997864e-06 0.08183452848947842" pbc="T T T"
Ti      -0.04542814       0.05802661       0.02142817
Ti      -0.00288181       1.77162416       2.37962277
Ti       0.06451749       0.09952758       4.68583477
Ti       0.03310911       1.80325907       7.05111787
Ti      -1.51931784       2.64771191       0.06106466
Al      -1.49101282       4.50614383       2.33796431
Ti      -1.55067570       2.65485252       4.66980858
Ti      -1.51111608       4.52066919       7.07732021
Ti       3.07982698       0.11189009      -0.03049259
Ti       3.15410976       1.80724891       2.37795767
Ti       3.08058371       0.10328390       4.70958327
Ti       3.14112730       1.84689320       7.02019899
Ti       1.55004283       2.70765456       0.06937295
V        1.41922175       4.52380259       2.37947033
Ti       1.58979126       2.68081155       4.65615632
Ti       1.63125924       4.56586660       7.11501663
Al       6.14900977       0.04353788       0.16074989
Ti       6.18587640       1.93384462       2.39043841
Ti       6.14777994       0.10115150       4.69821426
Ti       6.21595999       1.77370038       7.10357416
Ti       4.59182979       2.75155606       0.00730868
Ti       4.71209425       4.47451389       2.42249589
Ti       4.62059896       2.68819357       4.74639454
Al       4.71067872       4.55019530       7.05402824
24
Lattice="9.291656909288955 0.051979403676381306 -0.004756891019463561 -3.07041598745914 5.3963790955742414 0.019102966565688988 -0.006489379017792393 0.03135912208184263 9.445821345075032" Properties=species:S:1:pos:R:3 n_minim_iter=15 stress="0.08192056527413023 4.162794756405929e-05 -9.567446180048698e-06 4.162794756405929e-05 0.08174889768016327 -2.21565561682858e-05 -9.567446180048698e-06 -2.21565561682858e-05 0.08171824846766028" pbc="T T T"
Ti      -0.04517172       0.05830622       0.02131004
Ti      -0.00262540       1.77131590       2.37882409
Ti       0.06360270       0.10163084       4.68480886
Ti       0.03400353       1.80197146       7.05032837
Ti      -1.51885597       2.64888006       0.06076079
Al      -1.49062137       4.50603633       2.33871874
Ti      -1.55084846       2.65350106       4.66906219
Ti      -1.50987146       4.52295117       7.07748676
Ti       3.07969606       0.11168910      -0.02977046
Ti       3.15406098       1.80713546       2.37795975
Ti       3.08049233       0.10493320       4.70918332
Ti       3.14191352       1.84543583       7.02015046
Ti       1.54933661       2.70784129       0.06852340
V        1.41957379       4.52393082       2.38039328
Ti       1.58989045       2.68013664       4.65575659
Ti       1.63056993       4.56671092       7.11383065
Al       6.14821219       0.04341794       0.16186725
Ti       6.18533376       1.93362523       2.38986544
Ti       6.14905880       0.10430533       4.69873190
Ti       6.21569529       1.77386813       7.10386036
Ti       4.59194370       2.75190505       0.00685226
Ti       4.71187899       4.47436497       2.42211820
Ti       4.62128408       2.68734147       4.74499945
Al       4.71099602       4.54994043       7.05340241
24
Lattice="9.290603104364624 0.05221311228970782 -0.00469753699634084 -3.069934232288711 5.396510553471019 0.019183539709369334 -0.006427479513751113 0.031530445356210135 9.446530966678912" Properties=species:S:1:pos:R:3 n_minim_iter=16 stress="0.08183200299157008 -9.560541016318818e-07 -1.22498195594104e-06 -9.560541016318818e-07 0.08183582956340238 -1.6936239775302778e-06 -1.22498195594104e-06 -1.6936239775302778e-06 0.08183156177939058" pbc="T T T"
Ti      -0.04497726       0.05874433       0.02109473
Ti      -0.00247832       1.77142868       2.37872110
Ti       0.06303612       0.10115962       4.68572811
Ti       0.03521180       1.80251440       7.05066014
Ti      -1.51853144       2.65002517       0.06039895
Al      -1.48877339       4.50720550       2.33880139
Ti      -1.55041020       2.65497926       4.66968859
Ti      -1.50872322       4.52349141       7.07881372
Ti       3.07866500       0.11074895      -0.02766386
Ti       3.15374558       1.80717557       2.37891251
Ti       3.07948212       0.10375424       4.70975845
Ti       3.14193214       1.84573491       7.02145752
Ti       1.54892415       2.70806089       0.06763120
V        1.42063225       4.52426673       2.38121179
Ti       1.58791093       2.68170420       4.65718709
Ti       1.63068278       4.56669955       7.11361100
Al       6.14667061       0.04284151       0.16074927
Ti       6.18428017       1.93371811       2.38999905
Ti       6.14770338       0.10389347       4.69893558
Ti       6.21472285       1.77427037       7.10454986
Ti       4.59081813       2.75208922       0.00587505
Ti       4.71186430       4.47368643       2.42192795
Ti       4.62230490       2.68840802       4.74505730
Al       4.71039411       4.54961206       7.05366390
