22
Lattice="9.12530568362485 -0.13201146251712267 -0.4244984500153502 -3.9616470817109035 8.221556011230682 0.42449845001544273 -2.9396453919487606 -3.816373737822844 7.76289934513825" Properties=species:S:1:pos:R:3 unique_starting_index=6 config_type=initial n_minim_iter=1 energy=-3578.0203224191414 free_energy=-3578.0203224191414 pbc="T T T"
Si      -4.26383080       5.02803885       5.82346411
Si       3.17060677       1.36256646       5.87486340
Si       5.84112998       1.59581072       0.00939129
Si      -0.19860408       0.49528021       3.69793101
Si       6.08670188      -0.49881394       1.46353749
Si      -0.54545144       2.65455027       2.36393368
Si       2.75687418       4.30154762       4.06496833
Si      -3.95137367       2.15370309       7.75350805
Si      -0.64097364       4.98126593       2.08623766
Si       1.33155527       5.96350023       3.22042926
Si       1.49937865       3.76541632       2.11485956
Si       1.23923498       5.87206512       0.76210991
Si       1.90895787      -0.09784972       4.54247008
Si       1.84848692      -2.30057481       5.67666168
Si       1.86488976      -0.22008482       7.00078943
Si      -0.15547697      -0.87105498       5.64803978
Si      -0.92616989       1.53247541       0.31184627
Si       2.05997379       3.43658980       6.15767571
Si      -0.68975992      -0.50100697       1.60522363
Si      -5.12132325       4.21029486       7.87555152
Si       2.58182930       4.04477228      -0.00000000
Si       3.09283015      -1.97419260       3.66920045
22
Lattice="9.112342468471448 -0.12339366043913347 -0.436941090979533 -3.9483725497758266 8.213425927487355 0.4369410909796256 -2.950289159840541 -3.809922904042231 7.747335678393773" Properties=species:S:1:pos:R:3 unique_starting_index=6 config_type=initial n_minim_iter=2 stress="-0.0014509471810353947 2.383039896049687e-05 7.312434194838896e-05 2.383039896049687e-05 -0.0014288249986072125 -4.667619234150246e-05 7.312434194838896e-05 -4.667619234150246e-05 -0.0014661584442002748" pbc="T T T"
Si      -4.26149157       5.02634544       5.82234923
Si       3.15867413       1.37072668       5.85953785
Si       5.83337514       1.60072090       0.00199306
Si      -0.20268237       0.49826649       3.69154592
Si       6.07552050      -0.49113325       1.45085673
Si      -0.54534154       2.65427988       2.36192754
Si       2.75096747       4.30604422       4.05578976
Si      -3.95429873       2.15518714       7.74534261
Si      -0.63832344       4.97959259       2.08654334
Si       1.33160062       5.96413940       3.21729503
Si       1.49676937       3.76629302       2.11197319
Si       1.24233703       5.87156030       0.76478102
Si       1.89887476      -0.09108865       4.53004064
Si       1.83520957      -2.29242460       5.66079234
Si       1.85248209      -0.21103279       6.98255465
Si      -0.16422697      -0.86660179       5.63536249
Si      -0.92374513       1.53154351       0.31395714
Si       2.05114132       3.44195504       6.14465731
Si      -0.69181850      -0.50030880       1.60267836
Si      -5.12055863       4.21042265       7.87031963
Si       2.58198496       4.04501614      -0.00000000
Si       3.08102665      -1.96665828       3.65519729
22
Lattice="9.1233089662822 -0.11196027171633456 -0.45769036942052077 -3.9426189395694236 8.228186768300551 0.45769036942061364 -2.9761391240055155 -3.811855987945208 7.750427853523843" Properties=species:S:1:pos:R:3 unique_starting_index=6 config_type=initial n_minim_iter=3 stress="0.0003937004351618731 0.0005206090875280936 -0.0011045243126481703 0.0005206090875280936 0.0008769910937523681 0.0007050318387746547 -0.0011045243126481703 0.0007050318387746547 6.138934335373649e-05" pbc="T T T"
Si      -4.27359928       5.04066145       5.84122689
Si       3.15074073       1.38763661       5.85669702
Si       5.84041649       1.61252937      -0.00949730
Si      -0.20952068       0.50476185       3.69505630
Si       6.07931533      -0.48170959       1.43604046
Si      -0.54735497       2.66215257       2.36689133
Si       2.75060829       4.32683732       4.05537155
Si      -3.97240231       2.16461249       7.75992515
Si      -0.63749634       4.99311321       2.09363321
Si       1.33597316       5.98416668       3.22387255
Si       1.49630644       3.77907884       2.11514197
Si       1.25072143       5.89058500       0.77205057
Si       1.88934969      -0.08062380       4.52655530
Si       1.82127530      -2.28791506       5.65679463
Si       1.84035856      -0.19735106       6.97837728
Si      -0.17828463      -0.86357174       5.63528588
Si      -0.92337021       1.53586931       0.31818427
Si       2.04350418       3.46069825       6.14573804
Si      -0.69745202      -0.50127797       1.60468980
Si      -5.13688911       4.22541171       7.88993395
Si       2.59034501       4.05811325      -0.00000000
Si       3.07358492      -1.96190813       3.64636874
22
Lattice="9.120538979059551 -0.11680773129851298 -0.42985986710502344 -3.9458496311059834 8.223633382108918 0.4298598671051162 -2.9496799932970235 -3.8221296082700644 7.750701130524372" Properties=species:S:1:pos:R:3 unique_starting_index=6 config_type=initial n_minim_iter=4 stress="-5.742668993134558e-06 0.0006533547599596901 -1.3392424873782071e-05 0.0006533547599596901 0.0006007781540162706 8.548554184245416e-06 -1.3392424873782071e-05 8.548554184245416e-06 -0.0004227872725840449" pbc="T T T"
Si      -4.26254998       5.02815633       5.82288943
Si       3.16590041       1.37679663       5.86848557
Si       5.83267385       1.60772238       0.00347247
Si      -0.19557313       0.49899259       3.69926961
Si       6.08678955      -0.48764385       1.45235569
Si      -0.54012128       2.65208300       2.35767157
Si       2.75996158       4.31738506       4.05143152
Si      -3.94704359       2.14529207       7.74722866
Si      -0.63594460       4.98413653       2.07528302
Si       1.34906210       5.97056686       3.21773471
Si       1.48973760       3.76643168       2.11509286
Si       1.25239959       5.89312279       0.77078283
Si       1.89796241      -0.08475080       4.53296642
Si       1.83893879      -2.30056049       5.67541810
Si       1.86841307      -0.20503406       6.97991830
Si      -0.16053154      -0.88512831       5.63560827
Si      -0.92345891       1.54098492       0.31198091
Si       2.05643933       3.44076701       6.14318413
Si      -0.69451750      -0.50821011       1.60751699
Si      -5.10898320       4.21265801       7.86858009
Si       2.58734467       4.05341283      -0.00000000
Si       3.08542949      -1.96946867       3.66042063
22
Lattice="9.121293387614207 -0.14040761954827313 -0.43512191841888237 -3.9675735968861234 8.214381724503287 0.43512191841897474 -2.943630683709396 -3.802872619363875 7.764034819941714" Properties=species:S:1:pos:R:3 unique_starting_index=6 config_type=initial n_minim_iter=5 stress="-1.7533982083428055e-05 -0.00029858032349829977 -0.0004023401937767171 -0.00029858032349829977 -0.0002947113972361568 0.00025681883448189967 -0.0004023401937767171 0.00025681883448189967 0.00017305371444260956" pbc="T T T"
Si      -4.28010793       5.02841769       5.83742136
Si       3.15936996       1.36879286       5.87816403
Si       5.82647063       1.58907595       0.00071575
Si      -0.19791727       0.49997657       3.70779948
Si       6.08908285      -0.50127994       1.45074887
Si      -0.54816668       2.64627238       2.36173537
Si       2.74692077       4.30207852       4.05623533
Si      -3.95529593       2.15107195       7.76331906
Si      -0.65050118       4.97406624       2.07872336
Si       1.33397378       5.95332320       3.22458643
Si       1.47552237       3.75275066       2.11934626
Si       1.23816467       5.87872722       0.77540408
Si       1.89472323      -0.08643959       4.53944839
Si       1.84198238      -2.29874686       5.68531145
Si       1.86739797      -0.20474967       6.98863073
Si      -0.16090680      -0.88452522       5.64468856
Si      -0.92806477       1.54175336       0.31323655
Si       2.04356233       3.42803976       6.15222201
Si      -0.69459105      -0.50599163       1.61181281
Si      -5.12202169       4.21880911       7.88592019
Si       2.57685989       4.03698706      -0.00000000
Si       3.08883135      -1.97164012       3.66445645
22
Lattice="9.120659759391446 -0.14305571851314164 -0.4214662820639813 -3.9697087947101757 8.212692096406755 0.4214662820640736 -2.9307357085720556 -3.808051093215964 7.764925517354035" Properties=species:S:1:pos:R:3 unique_starting_index=6 config_type=initial n_minim_iter=6 stress="-4.102924990892464e-05 -4.407110561851218e-05 0.00015270141818197151 -4.407110561851218e-05 -8.194123967227708e-05 -9.747124659155569e-05 0.00015270141818197151 -9.747124659155569e-05 -1.289814358256074e-05" pbc="T T T"
Si      -4.27611393       5.01966374       5.82906821
Si       3.16859126       1.36605876       5.88374304
Si       5.82205018       1.58772776       0.00743755
Si      -0.19156591       0.49703969       3.71169087
Si       6.09498191      -0.50189340       1.45971619
Si      -0.54702873       2.63934149       2.35732359
Si       2.75170899       4.29708686       4.05323464
Si      -3.94176275       2.14131628       7.75748796
Si      -0.64987382       4.97015478       2.07144780
Si       1.33892998       5.94756549       3.22195308
Si       1.47241050       3.74720681       2.11751144
Si       1.24035758       5.87875255       0.77504429
Si       1.90030902      -0.08954662       4.54297244
Si       1.85106533      -2.30500307       5.69347771
Si       1.87939266      -0.20792839       6.98988122
Si      -0.15173024      -0.89486038       5.64741407
Si      -0.92955740       1.54453834       0.30992472
Si       2.05006593       3.41900367       6.15035611
Si      -0.69263041      -0.50907534       1.61456941
Si      -5.10810737       4.21175964       7.87646707
Si       2.57547548       4.03481819      -0.00000000
Si       3.09496202      -1.97555340       3.67172962
22
Lattice="9.118554932275758 -0.1769767031122314 -0.3946160792466495 -3.9995907550782466 8.19650160728754 0.39461607924674125 -2.8921098327581545 -3.797441955918764 7.781402313405106" Properties=species:S:1:pos:R:3 unique_starting_index=6 config_type=initial n_minim_iter=7 stress="-6.544311660593735e-05 0.0003629513084505552 0.0010480150418663776 0.0003629513084505552 0.000271491026687382 -0.000668961256505953 0.0010480150418663776 -0.000668961256505953 -0.0002971197868245645" pbc="T T T"
Si      -4.28972081       4.98485824       5.82488593
Si       3.18973603       1.36078820       5.90333581
Si       5.79787928       1.56772028       0.02125559
Si      -0.18050308       0.49014969       3.73777681
Si       6.11781998      -0.50824482       1.48345042
Si      -0.56412652       2.60676429       2.35113245
Si       2.74744085       4.26471829       4.04362550
Si      -3.91110836       2.12157765       7.76014672
Si      -0.66544729       4.94754514       2.06374527
Si       1.32819825       5.91643703       3.22291523
Si       1.44780902       3.71872660       2.10974334
Si       1.23495711       5.85585434       0.78045768
Si       1.91521798      -0.10177733       4.55848708
Si       1.87573976      -2.31803893       5.71765704
Si       1.89952234      -0.21185830       7.00094463
Si      -0.12857978      -0.91855673       5.67165897
Si      -0.94514994       1.55238118       0.30117788
Si       2.05028913       3.38570674       6.14946989
Si      -0.68430057      -0.51228230       1.63193242
Si      -5.08568486       4.19533699       7.87484051
Si       2.55948209       4.00976246      -0.00000000
Si       3.11322255      -1.98720933       3.69339311
22
Lattice="9.11696922513591 -0.22177567324396855 -0.41779347541177714 -4.039558181989434 8.176202174337417 0.4177934754118679 -2.890869874800714 -3.7524222897108648 7.804169527634916" Properties=species:S:1:pos:R:3 unique_starting_index=6 config_type=initial n_minim_iter=8 stress="0.00019141733444335207 -0.00019900163491104865 -0.00045905544435734393 -0.00019900163491104865 6.680583777526977e-06 0.00029302089626146946 -0.00045905544435734393 0.00029302089626146946 0.0003184427086140741" pbc="T T T"
Si      -4.33086281       4.96604388       5.85659688
Si       3.18186372       1.36507787       5.90471473
Si       5.77565118       1.54230372       0.00983888
Si      -0.19323099       0.49206797       3.76560523
Si       6.12467956      -0.51335870       1.48166132
Si      -0.60259815       2.58624539       2.36536612
Si       2.71422631       4.23390230       4.03856430
Si      -3.92356416       2.13573445       7.79433064
Si      -0.69590265       4.92528224       2.08851856
Si       1.28467668       5.89429805       3.23660813
Si       1.42144179       3.69661193       2.10555588
Si       1.21459633       5.81617379       0.79078437
Si       1.91470001      -0.10555490       4.56756139
Si       1.86960830      -2.31001694       5.71565096
Si       1.87334217      -0.20201311       7.01338515
Si      -0.13629796      -0.90676417       5.69861364
Si      -0.96800109       1.54954003       0.30008974
Si       2.01696250       3.37859574       6.15450417
Si      -0.67547961      -0.50048550       1.64966536
Si      -5.11736870       4.19813385       7.92187326
Si       2.53870552       3.97721325      -0.00000000
Si       3.11304967      -1.98709898       3.69318802
22
Lattice="9.106960885733693 -0.24395410613844815 -0.3785722287075645 -4.055461516384807 8.157786591306907 0.37857222870765495 -2.8448537992013017 -3.7532280502565074 7.807666307961129" Properties=species:S:1:pos:R:3 unique_starting_index=6 config_type=initial n_minim_iter=9 stress="-0.0004616811079447923 3.503767544187514e-05 0.00023058909840412682 3.503767544187514e-05 -0.00042915501179080094 -0.00014718793799970423 0.00023058909840412682 -0.00014718793799970423 -0.0004840461564163688" pbc="T T T"
Si      -4.31566134       4.92269397       5.82243025
Si       3.21591463       1.34842248       5.90779823
Si       5.74504144       1.53419574       0.02360341
Si      -0.17219049       0.47771723       3.79054100
Si       6.13124398      -0.51246911       1.52129584
Si      -0.61820614       2.56256155       2.36380828
Si       2.71245543       4.20554547       4.01712530
Si      -3.87201525       2.10375045       7.78406289
Si      -0.70381878       4.89291511       2.07363424
Si       1.28828225       5.87228289       3.22586582
Si       1.40635577       3.66597384       2.10076272
Si       1.21098736       5.80161137       0.78701598
Si       1.93922917      -0.11235897       4.58180049
Si       1.88959850      -2.33163015       5.73403207
Si       1.90766880      -0.21222341       7.02065032
Si      -0.11172079      -0.93415291       5.70690359
Si      -0.98964432       1.54495783       0.27983710
Si       2.02833930       3.36116424       6.14222294
Si      -0.65006464      -0.49831086       1.66544337
Si      -5.08230008       4.15735178       7.90640143
Si       2.52574968       3.95691625      -0.00000000
Si       3.13105354      -1.99859107       3.71454704
22
Lattice="9.107691856651872 -0.247078630152474 -0.3732344771597951 -4.058603375903722 8.157134143944399 0.3732344771598853 -2.839149075520373 -3.754211511503687 7.809963587239474" Properties=species:S:1:pos:R:3 unique_starting_index=6 config_type=initial n_minim_iter=10 stress="-6.160348767500896e-05 3.640103288403666e-05 3.433114596648939e-05 3.640103288403666e-05 -2.7811762602924353e-05 -2.191400469034251e-05 3.433114596648939e-05 -2.191400469034251e-05 -8.483873586329436e-05" pbc="T T T"
Si      -4.31291685       4.91573815       5.81626177
Si       3.22420525       1.34567651       5.90708007
Si       5.73952979       1.53430443       0.02380947
Si      -0.16752406       0.47549012       3.79754263
Si       6.13169844      -0.51021317       1.52964904
Si      -0.62310804       2.56048652       2.36693629
Si       2.71176452       4.20408008       4.01242095
Si      -3.86389144       2.09781338       7.78615412
Si      -0.70527234       4.88837098       2.07261281
Si       1.28921402       5.87184422       3.22464610
Si       1.40418755       3.66130786       2.10166039
Si       1.21056364       5.80261595       0.78633311
Si       1.94414371      -0.11268196       4.58531748
Si       1.89179343      -2.33584523       5.73735077
Si       1.91446312      -0.21316827       7.02363048
Si      -0.10933550      -0.93906751       5.70830320
Si      -0.99577501       1.54128247       0.27522814
Si       2.03118982       3.36427545       6.14133007
Si      -0.64273801      -0.49539888       1.66863352
Si      -5.08048985       4.14860762       7.90796992
Si       2.52454424       3.95502776      -0.00000000
Si       3.13427139      -2.00064507       3.71836455
22
Lattice="9.110007582216626 -0.25421400985540377 -0.3637936662856845 -4.06605050183457 8.156230515831547 0.36379366628577453 -2.828625558992256 -3.7552715824192293 7.815754700076697" Properties=species:S:1:pos:R:3 unique_starting_index=6 config_type=initial n_minim_iter=11 stress="0.00040024675596688245 -6.9260098564498e-05 -0.00015123201052365774 -6.9260098564498e-05 0.00033595137685930675 9.653330509790934e-05 -0.00015123201052365774 9.653330509790934e-05 0.00044445639031840306" pbc="T T T"
Si      -4.31121075       4.90554107       5.80816913
Si       3.23747315       1.34065828       5.90959630
Si       5.73125368       1.52961731       0.02493278
Si      -0.15855720       0.47407910       3.80778794
Si       6.13439988      -0.50848669       1.54236473
Si      -0.62999924       2.55577720       2.37137924
Si       2.71210157       4.20252036       4.00796676
Si      -3.85413501       2.08727309       7.79082192
Si      -0.70721770       4.88476411       2.07133356
Si       1.28735990       5.86656190       3.22434522
Si       1.39949887       3.65338987       2.10303153
Si       1.20922483       5.80306691       0.78602505
Si       1.95065650      -0.11764776       4.59140948
Si       1.89986435      -2.34018839       5.74442114
Si       1.92595934      -0.21525285       7.02972965
Si      -0.10402000      -0.94771407       5.71272317
Si      -1.00388528       1.53336602       0.27087492
Si       2.03885071       3.36682151       6.14454430
Si      -0.63313044      -0.48843818       1.67121040
Si      -5.08117954       4.13595452       7.90867344
Si       2.52197854       3.95100826      -0.00000000
Si       3.14069101      -2.00474279       3.72598051
22
Lattice="9.11034916313331 -0.24947550666789992 -0.3620772833635993 -4.061896240005485 8.158535336569917 0.3620772833636896 -2.8294267129738513 -3.759716734306723 7.813493099468557" Properties=species:S:1:pos:R:3 unique_starting_index=6 config_type=initial n_minim_iter=12 stress="-6.167184995911271e-05 5.793412047574296e-05 -2.4477134269289307e-05 5.793412047574296e-05 -7.890577388355922e-06 1.562406439043689e-05 -2.4477134269289307e-05 1.562406439043689e-05 -9.865192575044297e-05" pbc="T T T"
Si      -4.30834694       4.90741131       5.80619253
Si       3.23780358       1.34170566       5.90990500
Si       5.73296743       1.52849563       0.02569462
Si      -0.15549209       0.47710692       3.80347827
Si       6.13475122      -0.50745266       1.54151081
Si      -0.62615544       2.55702190       2.36937785
Si       2.71725218       4.20917351       4.01001482
Si      -3.85667510       2.08391015       7.78779847
Si      -0.70237376       4.89140177       2.07035194
Si       1.28827052       5.86616411       3.22383354
Si       1.40140887       3.65630682       2.10231336
Si       1.21245018       5.80678508       0.78598452
Si       1.94911113      -0.12143440       4.58965955
Si       1.90304453      -2.33744527       5.74314115
Si       1.92717284      -0.21520702       7.02750857
Si      -0.10297947      -0.94919867       5.71117973
Si      -1.00039419       1.52957407       0.27504081
Si       2.04676600       3.36828917       6.14726563
Si      -0.63593282      -0.48508584       1.66622747
Si      -5.08273573       4.13538431       7.90052957
Si       2.52422646       3.95452992      -0.00000000
Si       3.14046122      -2.00459612       3.72570791
22
Lattice="9.110795760936615 -0.2541638625570208 -0.3597515470178633 -4.066336851952359 8.156966548477707 0.3597515470179536 -2.8254693039646037 -3.75783951166788 7.816392087082984" Properties=species:S:1:pos:R:3 unique_starting_index=6 config_type=initial n_minim_iter=13 stress="-4.6311915569226565e-05 -2.398298263247794e-05 3.64086708087541e-05 -2.398298263247794e-05 -6.85757441300406e-05 -2.3240115073672926e-05 3.64086708087541e-05 -2.3240115073672926e-05 -3.1003283431822345e-05" pbc="T T T"
Si      -4.31005532       4.90420424       5.80695483
Si       3.23955668       1.34048090       5.91194521
Si       5.73030251       1.52527592       0.02655910
Si      -0.15402568       0.47668837       3.80689122
Si       6.13730622      -0.50918928       1.54469533
Si      -0.62882837       2.55443051       2.36918880
Si       2.71621855       4.20594748       4.00950087
Si      -3.85451617       2.08201460       7.78983298
Si      -0.70458401       4.88857781       2.07044797
Si       1.28611616       5.86296748       3.22417718
Si       1.39857325       3.65312790       2.10174781
Si       1.21119550       5.80376831       0.78666431
Si       1.95107606      -0.12285714       4.59221490
Si       1.90537101      -2.33876179       5.74594411
Si       1.92892212      -0.21573798       7.02972777
Si      -0.10071166      -0.95123188       5.71464428
Si      -1.00288326       1.52949384       0.27471185
Si       2.04720907       3.36527210       6.14810970
Si      -0.63489859      -0.48407696       1.66828238
Si      -5.08224377       4.13340125       7.90143177
Si       2.52222945       3.95140135      -0.00000000
Si       3.14266323      -2.00600168       3.72832027
22
Lattice="9.113948027639998 -0.25758477207934094 -0.3562990282307248 -4.070766954667012 8.158385561256642 0.3562990282308149 -2.8219202003003234 -3.7586961716100977 7.820889785408602" Properties=species:S:1:pos:R:3 unique_starting_index=6 config_type=initial n_minim_iter=14 stress="8.17110615231429e-06 -7.100643416070217e-05 5.80440504562287e-05 -7.100643416070217e-05 -5.774542729312259e-05 -3.705025154657739e-05 5.80440504562287e-05 -3.705025154657739e-05 5.3495396796405576e-05" pbc="T T T"
Si      -4.30953667       4.90161127       5.80948608
Si       3.24160115       1.34002901       5.91356541
Si       5.72757787       1.52216041       0.02684259
Si      -0.14979164       0.47743163       3.81200928
Si       6.14273695      -0.51180266       1.55102534
Si      -0.63227969       2.55437163       2.36770273
Si       2.71738139       4.20724234       4.00888050
Si      -3.85264587       2.07737487       7.79404719
Si      -0.70562076       4.88629687       2.07090053
Si       1.28579145       5.86329990       3.22382382
Si       1.39613656       3.65159797       2.10088733
Si       1.21204224       5.80349558       0.78789507
Si       1.95506339      -0.12386837       4.59706596
Si       1.90728766      -2.34151915       5.74998926
Si       1.93186735      -0.21594142       7.03299471
Si      -0.09752441      -0.95494288       5.72000245
Si      -1.00748177       1.52828459       0.27683231
Si       2.05314736       3.36421738       6.14938187
Si      -0.63480630      -0.47999133       1.67150791
Si      -5.08228558       4.12928339       7.90035650
Si       2.52159054       3.95040040      -0.00000000
Si       3.14601391      -2.00814047       3.73229538
22
Lattice="9.115970662632236 -0.24994142833524186 -0.35849775913605253 -4.064685600538995 8.163438173241738 0.35849775913614274 -2.8278255417656273 -3.7638611347040105 7.818482240619192" Properties=species:S:1:pos:R:3 unique_starting_index=6 config_type=initial n_minim_iter=15 stress="1.597138457624833e-05 3.484278658728114e-05 -3.751169755483052e-05 3.484278658728114e-05 4.831656194568604e-05 2.3944190996742002e-05 -3.751169755483052e-05 2.3944190996742002e-05 -6.269197508715563e-06" pbc="T T T"
Si      -4.30502540       4.90775978       5.80992746
Si       3.23915725       1.34149529       5.91087223
Si       5.73191184       1.52669491       0.02510209
Si      -0.14943707       0.47883879       3.80838832
Si       6.14121316      -0.51092370       1.54911225
Si      -0.62842597       2.56093987       2.36705253
Si       2.72070712       4.21568740       4.01009392
Si      -3.85626286       2.07805015       7.79338014
Si      -0.70131210       4.89167051       2.07106954
Si       1.29006857       5.87031468       3.22308324
Si       1.40152634       3.65827323       2.10200948
Si       1.21461264       5.80960807       0.78694351
Si       1.95372009      -0.12220042       4.59539899
Si       1.90444248      -2.34051354       5.74741270
Si       1.93042418      -0.21620143       7.03153872
Si      -0.09964412      -0.95240862       5.71647275
Si      -1.00590721       1.52766680       0.27961547
Si       2.05751634       3.36997575       6.14863395
Si      -0.63732791      -0.47876903       1.66984829
Si      -5.08333285       4.13033915       7.89736453
Si       2.52564253       3.95674838      -0.00000000
Si       3.14407256      -2.00690128       3.72999224
22
Lattice="9.119112871636577 -0.252618680820515 -0.35574580072645223 -4.068436932518492 8.165161155155875 0.35574580072654255 -2.8252013085995973 -3.764864675189981 7.822571340785287" Properties=species:S:1:pos:R:3 unique_starting_index=6 config_type=initial n_minim_iter=16 stress="-2.6516858310417055e-05 2.6121831787044267e-05 3.6841531038131665e-06 2.6121831787044267e-05 -2.2674981095343254e-06 -2.351641523227348e-06 3.6841531038131665e-06 -2.351641523227348e-06 -4.319075484203748e-05" pbc="T T T"
Si      -4.30495568       4.90813963       5.81166684
Si       3.24064086       1.33945240       5.91376980
Si       5.72963909       1.52509582       0.02474734
Si      -0.14573976       0.47885702       3.81353278
Si       6.14450197      -0.51411887       1.55305574
Si      -0.62923788       2.56188246       2.36665030
Si       2.72118214       4.21709091       4.00903856
Si      -3.85413222       2.07431186       7.79782400
Si      -0.70158509       4.89308875       2.07111721
Si       1.28885508       5.86850220       3.22407642
Si       1.40137392       3.65939927       2.10285611
Si       1.21282332       5.80837838       0.78767785
Si       1.95521120      -0.12506775       4.59849491
Si       1.90846807      -2.34116759       5.75145412
Si       1.93268635      -0.21934570       7.03489348
Si      -0.09593434      -0.95307633       5.71971523
Si      -1.01142769       1.52876467       0.28136418
Si       2.06210568       3.36880069       6.14747904
Si      -0.63770170      -0.47610451       1.67509230
Si      -5.08113990       4.12651345       7.89695296
Si       2.52533797       3.95627124      -0.00000000
Si       3.14695578      -2.00874167       3.73341277
22
Lattice="9.12287715989607 -0.2540997173196239 -0.35532706808839976 -4.071365139040802 8.167952022722588 0.35532706808849024 -2.8252663924437975 -3.7657448876566506 7.8265411849058" Properties=species:S:1:pos:R:3 unique_starting_index=6 config_type=initial n_minim_iter=17 stress="1.8527084490610293e-05 -4.325560242409086e-05 2.382593511688152e-05 -4.325560242409086e-05 -2.1627859179996603e-05 -1.520839573534342e-05 2.382593511688152e-05 -1.520839573534342e-05 4.613767671534107e-05" pbc="T T T"
Si      -4.30592315       4.91151180       5.81486133
Si       3.24046316       1.33773296       5.91681840
Si       5.72883419       1.52417789       0.02416604
Si      -0.14382946       0.47999112       3.81768720
Si       6.14671636      -0.51736522       1.55439571
Si      -0.62876512       2.56433532       2.36700691
Si       2.72217756       4.21973075       4.00885398
Si      -3.85469104       2.07231510       7.80237514
Si      -0.70154803       4.89583819       2.07250867
Si       1.28726060       5.86859039       3.22552451
Si       1.40106809       3.66189640       2.10372151
Si       1.21188596       5.80851830       0.78927921
Si       1.95589741      -0.12735710       4.60101667
Si       1.91088127      -2.34085663       5.75403251
Si       1.93314283      -0.22101724       7.03726197
Si      -0.09360563      -0.95318261       5.72281967
Si      -1.01608216       1.53016552       0.28406504
Si       2.06586539       3.36889273       6.14677183
Si      -0.63926619      -0.47353572       1.67976935
Si      -5.08090293       4.12479203       7.89780321
Si       2.52575601       3.95692616      -0.00000000
Si       3.14880538      -2.00992230       3.73560706
22
Lattice="9.123558699431927 -0.25028399006237007 -0.3575648764549341 -4.068191012042246 8.170176699876176 0.3575648764550247 -2.8290805115737 -3.767561049738191 7.825062635791802" Properties=species:S:1:pos:R:3 unique_starting_index=6 config_type=initial n_minim_iter=18 stress="3.282385214739547e-06 1.279497831972613e-05 -1.7881906123226037e-05 1.279497831972613e-05 1.5160190742463832e-05 1.1414246848639556e-05 -1.7881906123226037e-05 1.1414246848639556e-05 -4.8848068520120474e-06" pbc="T T T"
Si      -4.30512774       4.91534842       5.81420295
Si       3.23972939       1.33810775       5.91597440
Si       5.72866850       1.52769598       0.02424320
Si      -0.14540053       0.48183238       3.81824120
Si       6.14423267      -0.51587343       1.55152335
Si      -0.62625997       2.56708059       2.36842456
Si       2.72455068       4.22330515       4.00682143
Si      -3.85524430       2.07182982       7.80081943
Si      -0.69977696       4.89837061       2.07423451
Si       1.28800031       5.87295684       3.22539420
Si       1.40103144       3.66497406       2.10299169
Si       1.21497161       5.81199595       0.79096603
Si       1.95573247      -0.12666396       4.59966844
Si       1.90861853      -2.34000015       5.75082812
Si       1.93118401      -0.21857040       7.03409661
Si      -0.09461272      -0.95373628       5.72207094
Si      -1.01747354       1.53061457       0.28565343
Si       2.06744496       3.37257433       6.14387886
Si      -0.64040594      -0.47236912       1.68118377
Si      -5.08054983       4.12412755       7.89697408
Si       2.52768384       3.95994636      -0.00000000
Si       3.14723909      -2.00892252       3.73374888
22
Lattice="9.124430254905553 -0.25062651373259887 -0.3543963213404287 -4.068868638505267 8.170823038630148 0.35439632134051946 -2.8265066484174834 -3.7694177803570064 7.8259815769129615" Properties=species:S:1:pos:R:3 unique_starting_index=6 config_type=initial n_minim_iter=19 stress="-1.995677189806889e-05 -7.122115425272305e-05 6.912756077925847e-05 -7.122115425272305e-05 -8.607263381846107e-05 -4.412499636999659e-05 6.912756077925847e-05 -4.412499636999659e-05 2.5504574552278897e-05" pbc="T T T"
Si      -4.30357580       4.91648703       5.81048715
Si       3.24276738       1.33425313       5.91844743
Si       5.72489502       1.52940042       0.02828815
Si      -0.14572291       0.48295618       3.82325794
Si       6.14290270      -0.51693992       1.55313782
Si      -0.62398434       2.56775726       2.36989074
Si       2.72847354       4.22193296       4.00272363
Si      -3.84953572       2.06726794       7.79769343
Si      -0.70074874       4.89883099       2.07295568
Si       1.28934471       5.87268622       3.22646103
Si       1.40208273       3.66533345       2.10186619
Si       1.21564691       5.81096206       0.79027324
Si       1.95749484      -0.12741519       4.59952055
Si       1.91201912      -2.34254451       5.75302589
Si       1.93253577      -0.22024989       7.03570833
Si      -0.09215548      -0.95448812       5.72411538
Si      -1.02195944       1.53044923       0.28955618
Si       2.07487606       3.37107350       6.14110552
Si      -0.64232202      -0.46811732       1.68487605
Si      -5.07691492       4.11877860       7.89082171
Si       2.52778081       3.96009827      -0.00000000
Si       3.14896180      -2.01002214       3.73579263
22
Lattice="9.124664434390425 -0.24946903202076648 -0.3552707372581146 -4.067917334819286 8.17152277089423 0.35527073725820524 -2.8278364496986046 -3.769875912818877 7.825556194330368" Properties=species:S:1:pos:R:3 unique_starting_index=6 config_type=initial n_minim_iter=20 stress="-1.012954856022835e-05 -4.811547666686916e-06 9.699218082761983e-06 -4.811547666686916e-06 -1.4596193683979491e-05 -6.1911335776829305e-06 9.699218082761983e-06 -6.1911335776829305e-06 -7.058279231006809e-06" pbc="T T T"
Si      -4.30365148       4.91705656       5.81071141
Si       3.24257614       1.33516094       5.91794324
Si       5.72466587       1.53053915       0.02822619
Si      -0.14626511       0.48361678       3.82363840
Si       6.14271102      -0.51603183       1.55234222
Si      -0.62381438       2.56817000       2.37011552
Si       2.72915669       4.22311836       4.00191779
Si      -3.84973616       2.06708138       7.79733000
Si      -0.70032271       4.89964303       2.07282415
Si       1.29014944       5.87370248       3.22653884
Si       1.40216073       3.66620771       2.10176596
Si       1.21649781       5.81210881       0.79067788
Si       1.95674804      -0.12671552       4.59901735
Si       1.91124652      -2.34227432       5.75273204
Si       1.93188789      -0.21945341       7.03487831
Si      -0.09272512      -0.95450743       5.72379023
Si      -1.02224349       1.53070936       0.29039133
Si       2.07539995       3.37196724       6.14030075
Si      -0.64306172      -0.46772398       1.68525544
Si      -5.07693788       4.11887208       7.89043560
Si       2.52837355       3.96102687      -0.00000000
Si       3.14841399      -2.00967247       3.73514273
22
Lattice="9.125268169799847 -0.24783460932591148 -0.3566484302338456 -4.066689009629046 8.172758510032185 0.35664843023393633 -2.82991376025634 -3.7705697338588022 7.825185701230967" Properties=species:S:1:pos:R:3 unique_starting_index=6 config_type=initial n_minim_iter=21 stress="2.720817801899858e-05 6.952657869740597e-05 -6.825823321304384e-05 6.952657869740597e-05 9.175093536122374e-05 4.357009358941631e-05 -6.825823321304384e-05 4.357009358941631e-05 -1.7171499639480114e-05" pbc="T T T"
Si      -4.30367108       4.91807025       5.81080344
Si       3.24264824       1.33613353       5.91712747
Si       5.72421652       1.53235129       0.02891324
Si      -0.14778125       0.48507904       3.82462168
Si       6.14208928      -0.51461635       1.55140980
Si      -0.62373565       2.56912092       2.37103069
Si       2.73087611       4.22453511       4.00056402
Si      -3.84998058       2.06674291       7.79627246
Si      -0.69937777       4.90100267       2.07233765
Si       1.29150140       5.87491629       3.22647388
Si       1.40224522       3.66770532       2.10176899
Si       1.21762364       5.81387822       0.79141244
Si       1.95520253      -0.12567201       4.59871182
Si       1.91000464      -2.34153860       5.75284804
Si       1.93094153      -0.21838109       7.03377326
Si      -0.09347960      -0.95449409       5.72341670
Si      -1.02317602       1.53129487       0.29232721
Si       2.07679090       3.37310891       6.13882918
Si      -0.64468909      -0.46667547       1.68635652
Si      -5.07686317       4.11881465       7.88950692
Si       2.52928958       3.96246195      -0.00000000
Si       3.14767720      -2.00920217       3.73426863
