2
Lattice="4.809496139069116 2.857030057624892e-17 1.2410585336597365e-16 2.857030057624848e-17 4.809496139069116 -2.528715390039037e-16 2.404748069534558 2.404748069534558 1.3263491437557517" Properties=species:S:1:pos:R:3 cutoff=-1.0 nneightol=1.2 n_minim_iter=2 pbc="T T T"
Si      -0.00000000      -1.20237403      -0.33158729
Si      -0.00000000       1.20237404       0.33158729
