14
Lattice="4.635969875121818 -2.019488827182062 -3.2232676677901493 -0.9919410832783618 9.485576951598608 0.2848227746578212 -12.521415763625303 -0.8750205547149537 19.348352583925738" Properties=species:S:1:pos:R:3 unique_starting_index=0 config_type=initial n_minim_iter=1 energy=-2291.485469363437 free_energy=-2291.485469363437 pbc="T T T"
Si      -8.37405821       0.31685606      15.38596554
Si      -2.40363559       0.96757644       5.13357103
Si      -0.50332876       6.27421151       1.02394215
Si      -6.47375138       5.62349113      11.27633666
Si      -0.75490185       0.40389502       4.14825241
Si      -6.83206143      -0.29895043      14.26753067
Si      -8.12248512       6.18717255      12.26165528
Si      -2.04532555       6.89001800       2.14237702
Si      -3.95500249       1.61638208       6.23376186
Si      -9.97352829       0.94831232      16.40813267
Si      -4.92238449       4.97468549      10.17614583
Si       1.09614132       5.64275525       0.00177503
Si       2.31798494      -1.00974441      -1.61163383
Si      -6.75667842       4.30527820       9.81658768
14
Lattice="4.636316826915048 -2.019667800986067 -3.2235092412851816 -0.9922187888299521 9.485703606848505 0.28499881269935323 -12.52252748693673 -0.8744465773296551 19.34914330769345" Properties=species:S:1:pos:R:3 unique_starting_index=0 config_type=initial n_minim_iter=2 stress="0.0013616143313326045 -0.00029272019938395325 -0.0008424923192509695 -0.00029272019938395325 0.0002339801528353458 0.000364377297024952 -0.0008424923192509695 0.000364377297024952 0.000627623885333875" pbc="T T T"
Si      -8.37489254       0.31728272      15.38655848
Si      -2.40392493       0.96772045       5.13377448
Si      -0.50353691       6.27430651       1.02407440
Si      -6.47450452       5.62386878      11.27685839
Si      -0.75507190       0.40397978       4.14837490
Si      -6.83279469      -0.29857570      14.26805180
Si      -8.12335755       6.18760945      12.26225798
Si      -2.04563476       6.89016493       2.14258108
Si      -3.95539630       1.61658339       6.23403800
Si      -9.97447807       0.94879958      16.40880638
Si      -4.92303315       4.97500584      10.17659488
Si       1.09604862       5.64278965       0.00182650
Si       2.31815841      -1.00983390      -1.61175462
Si      -6.75737314       4.30562851       9.81707106
14
Lattice="4.636201935360366 -2.019863010132771 -3.2234335204435665 -0.9925598946557549 9.485778379356596 0.2849937805798756 -12.52186406565762 -0.8739344628442539 19.34882279478393" Properties=species:S:1:pos:R:3 unique_starting_index=0 config_type=initial n_minim_iter=3 stress="0.0009510887078303457 -0.00033142626143364953 -0.0006753847413185691 -0.00033142626143364953 0.00023783723896988432 0.0003447809550977451 -0.0006753847413185691 0.0003447809550977451 0.0005036575123037444" pbc="T T T"
Si      -8.37441506       0.31760768      15.38629920
Si      -2.40386475       0.96782974       5.13372971
Si      -0.50380696       6.27437322       1.02408385
Si      -6.47435727       5.62415117      11.27665334
Si      -0.75503383       0.40402489       4.14835345
Si      -6.83248447      -0.29824901      14.26789543
Si      -8.12318820       6.18795602      12.26202960
Si      -2.04573755       6.89022991       2.14248763
Si      -3.95521590       1.61674766       6.23390976
Si      -9.97395353       0.94920131      16.40852546
Si      -4.92300613       4.97523325      10.17647330
Si       1.09573150       5.64277960       0.00185759
Si       2.31810097      -1.00993151      -1.61171676
Si      -6.75721198       4.30592196       9.81690829
14
Lattice="4.636287355877727 -2.0199106363788997 -3.2232006840986123 -0.9929785366458287 9.485585363873367 0.28465845577761917 -12.521615771433028 -0.8740016447000701 19.34814325758709" Properties=species:S:1:pos:R:3 unique_starting_index=0 config_type=initial n_minim_iter=4 stress="0.0009072837413302148 -0.00032335171309531965 -0.0006257251661426962 -0.00032335171309531965 9.858585369653922e-05 0.00018703160574369014 -0.0006257251661426962 0.00018703160574369014 0.0003548125279423318" pbc="T T T"
Si      -8.37421604       0.31743630      15.38578691
Si      -2.40391547       0.96774351       5.13360033
Si      -0.50409091       6.27423678       1.02381412
Si      -6.47439148       5.62392957      11.27600070
Si      -0.75495086       0.40390995       4.14826886
Si      -6.83226777      -0.29839337      14.26741384
Si      -8.12335609       6.18776314      12.26133217
Si      -2.04603918       6.89006645       2.14218719
Si      -3.95518250       1.61671694       6.23362271
Si      -9.97378495       0.94910861      16.40796188
Si      -4.92312446       4.97495615      10.17597832
Si       1.09547800       5.64256447       0.00163915
Si       2.31814368      -1.00995532      -1.61160034
Si      -6.75729715       4.30579186       9.81640086
14
Lattice="4.636244591332492 -2.020769861253502 -3.222560503813479 -0.9946473751920591 9.486034248768881 0.28443578813111464 -12.518876546926155 -0.8719603623416207 19.346561902546906" Properties=species:S:1:pos:R:3 unique_starting_index=0 config_type=initial n_minim_iter=5 stress="5.015037248990774e-05 -0.0002656842007978835 -0.0002380146691395016 -0.0002656842007978835 6.679270215617193e-05 3.8174740587182614e-05 -0.0002380146691395016 3.8174740587182614e-05 0.00024370843811560383" pbc="T T T"
Si      -8.37215668       0.31869452      15.38498516
Si      -2.40350150       0.96802163       5.13348772
Si      -0.50512265       6.27460951       1.02345203
Si      -6.47377783       5.62528239      11.27494947
Si      -0.75447701       0.40407232       4.14856269
Si      -6.83021034      -0.29719555      14.26650717
Si      -8.12280232       6.18923171      12.25987450
Si      -2.04706900       6.89049957       2.14193002
Si      -3.95458051       1.61769818       6.23315498
Si      -9.97150891       0.95089805      16.40693310
Si      -4.92269882       4.97560585      10.17528221
Si       1.09422958       5.64240598       0.00150409
Si       2.31812230      -1.01038493      -1.61128025
Si      -6.75676196       4.30703694       9.81549885
14
Lattice="4.636664850537959 -2.0223893120206617 -3.2206586550615297 -0.997710776171759 9.486940852096854 0.28418880195846613 -12.514058570072393 -0.8678233908406798 19.340676252700415" Properties=species:S:1:pos:R:3 unique_starting_index=0 config_type=initial n_minim_iter=6 stress="-0.0010989772490243182 0.00024510529295320723 0.0008651454047961567 0.00024510529295320723 -0.00014992327850693891 -0.0005076158869729991 0.0008651454047961567 -0.0005076158869729991 -0.0003843553370517787" pbc="T T T"
Si      -8.36801088       0.32118166      15.38142422
Si      -2.40263850       0.96853904       5.13273602
Si      -0.50709361       6.27554649       1.02278218
Si      -6.47246599       5.62818911      11.27147038
Si      -0.75309290       0.40443165       4.14883463
Si      -6.82620672      -0.29452361      14.26298106
Si      -8.12201160       6.19229650      12.25537177
Si      -2.04889777       6.89125175       2.14122534
Si      -3.95370535       1.61997499       6.23161588
Si      -9.96720230       0.95462198      16.40283776
Si      -4.92139915       4.97675316      10.17259052
Si       1.09209780       5.64210617       0.00136864
Si       2.31833243      -1.01119466      -1.61032933
Si      -6.75588467       4.30955873       9.81243253
14
Lattice="4.6366812162511915 -2.0225291666203593 -3.220377601847012 -0.9969058824039715 9.486347021499537 0.2861102938075333 -12.514533170631738 -0.864834736814784 19.33645967525497" Properties=species:S:1:pos:R:3 unique_starting_index=0 config_type=initial n_minim_iter=7 stress="-0.0014323149600514258 0.0005643166958906245 0.0011676964245155856 0.0005643166958906245 -0.00023034619467338964 -0.0003533839546423524 0.0011676964245155856 -0.0003533839546423524 -0.0007029742868373759" pbc="T T T"
Si      -8.36806576       0.32338142      15.37854170
Si      -2.40277341       0.96917515       5.13210921
Si      -0.50669207       6.27560170       1.02365067
Si      -6.47198443       5.62980797      11.27008316
Si      -0.75305640       0.40525484       4.14850378
Si      -6.82638694      -0.29199361      14.25989697
Si      -8.12170144       6.19372828      12.25368859
Si      -2.04837090       6.89097673       2.14229539
Si      -3.95367397       1.62119876       6.23072392
Si      -9.96719592       0.95721609      16.39996671
Si      -4.92108387       4.97778436      10.17146845
Si       1.09243808       5.64176703       0.00222566
Si       2.31834061      -1.01126458      -1.61018880
Si      -6.75571953       4.31075614       9.81128498
14
Lattice="4.636694698219006 -2.022382991061776 -3.220422214177883 -0.9963795147715259 9.485758203805533 0.28681419304631517 -12.515518206267897 -0.8640968522112107 19.33494045603318" Properties=species:S:1:pos:R:3 unique_starting_index=0 config_type=initial n_minim_iter=8 stress="-0.0015401230636539135 0.0006527511800703943 0.0011840226267474812 0.0006527511800703943 -0.0003623330856416793 -0.00032056960396417033 0.0011840226267474812 -0.00032056960396417033 -0.0008739325175339669" pbc="T T T"
Si      -8.36880458       0.32386522      15.37749497
Si      -2.40309146       0.96926387       5.13187924
Si      -0.50639845       6.27541314       1.02383747
Si      -6.47211156       5.63001449      11.26945319
Si      -0.75322950       0.40548630       4.14831733
Si      -6.82712862      -0.29126261      14.25861840
Si      -8.12197353       6.19379206      12.25301511
Si      -2.04807440       6.89054097       2.14271404
Si      -3.95391003       1.62154105       6.23042137
Si      -9.96775293       0.95778078      16.39889832
Si      -4.92129299       4.97773731      10.17091106
Si       1.09254991       5.64149758       0.00243411
Si       2.31834735      -1.01119150      -1.61021111
Si      -6.75594886       4.31083068       9.81087732
14
Lattice="4.6365856398637995 -2.0216126320217467 -3.2212214003617605 -0.9956339636680459 9.48524869657678 0.28597574068742865 -12.518391818554193 -0.8671150487069198 19.337281150613727" Properties=species:S:1:pos:R:3 unique_starting_index=0 config_type=initial n_minim_iter=9 stress="-0.0015610951808398938 0.000399570711466875 0.0008105364305029341 0.000399570711466875 -0.0006281781271319615 -0.0004310746139913622 0.0008105364305029341 -0.0004310746139913622 -0.000948747297154825" pbc="T T T"
Si      -8.37118038       0.32115176      15.37910638
Si      -2.40409117       0.96824353       5.13236172
Si      -0.50625976       6.27536926       1.02292911
Si      -6.47334898       5.62827748      11.26967378
Si      -0.75417532       0.40494195       4.14872122
Si      -6.82968395      -0.29321382      14.25954200
Si      -8.12326482       6.19157906      12.25331428
Si      -2.04775619       6.88973484       2.14249349
Si      -3.95481468       1.62089833       6.23106561
Si      -9.96995850       0.95517279      16.40086696
Si      -4.92262546       4.97562268      10.17096988
Si       1.09251836       5.64134822       0.00116853
Si       2.31829282      -1.01080632      -1.61061070
Si      -6.75701289       4.30906682       9.81162845
14
Lattice="4.636031420974886 -2.0202363117230826 -3.2228916115837727 -0.9924195064349425 9.488546503694337 0.28445958111646374 -12.521721801135078 -0.8753622967588787 19.345905338321188" Properties=species:S:1:pos:R:3 unique_starting_index=0 config_type=initial n_minim_iter=10 stress="-0.0008571661525079233 0.00036488707197937406 0.0004675518581849133 0.00036488707197937406 -0.0001023123070515154 -0.00025123110288721663 0.0004675518581849133 -0.00025123110288721663 -0.00032634883634327096" pbc="T T T"
Si      -8.37358493       0.31479616      15.38587166
Si      -2.40518137       0.96641211       5.13466977
Si      -0.50452496       6.27815174       1.02160164
Si      -6.47292852       5.62653579      11.27280354
Si      -0.75502435       0.40400103       4.15079203
Si      -6.83250706      -0.29816906      14.26491131
Si      -8.12308553       6.18894687      12.25668127
Si      -2.04560282       6.89111695       2.14256200
Si      -3.95543080       1.61965113       6.23360642
Si      -9.97190935       0.94893282      16.40827415
Si      -4.92267908       4.97329677      10.17386689
Si       1.09379946       5.64401508      -0.00080085
Si       2.31801571      -1.01011816      -1.61144581
Si      -6.75707065       4.30659210       9.81518246
14
Lattice="4.63690706647815 -2.020569332705137 -3.221655937889635 -0.9939665936747585 9.487779476096623 0.28385531566773026 -12.521524188026438 -0.8743269665430256 19.341434707899108" Properties=species:S:1:pos:R:3 unique_starting_index=0 config_type=initial n_minim_iter=11 stress="0.0007167653530007959 -8.799546822143953e-05 -0.0002917383761151039 -8.799546822143953e-05 1.430972764746798e-05 2.8593408615881303e-06 -0.0002917383761151039 2.8593408615881303e-06 0.00013590716566479365" pbc="T T T"
Si      -8.37310801       0.31465470      15.38295465
Si      -2.40560931       0.96598304       5.13384338
Si      -0.50547571       6.27822848       1.02067944
Si      -6.47297440       5.62690014      11.26979070
Si      -0.75485978       0.40379590       4.15076431
Si      -6.83199256      -0.29776304      14.26159752
Si      -8.12372393       6.18908728      12.25286978
Si      -2.04659115       6.89064622       2.14203657
Si      -3.95614779       1.61999647       6.23205688
Si      -9.97159572       0.94913153      16.40496667
Si      -4.92243593       4.97288671      10.17157721
Si       1.09301201       5.64375165      -0.00133258
Si       2.31845353      -1.01028467      -1.61082797
Si      -6.75774539       4.30672625       9.81264501
14
Lattice="4.636416224884984 -2.021728677642453 -3.2217264345295376 -0.9952875245667858 9.488267976010073 0.2849163298731449 -12.518665068105756 -0.8701561425673381 19.34113543797673" Properties=species:S:1:pos:R:3 unique_starting_index=0 config_type=initial n_minim_iter=12 stress="0.000958944375764664 -0.0003702390191616055 -0.0006080387617732687 -0.0003702390191616055 0.00015995099726216977 0.0002914109671028242 -0.0006080387617732687 0.0002914109671028242 0.00045780809986052754" pbc="T T T"
Si      -8.37114486       0.31747478      15.38310148
Si      -2.40543575       0.96679434       5.13406708
Si      -0.50639151       6.27890837       1.02122385
Si      -6.47210062       5.62958881      11.27025825
Si      -0.75465918       0.40432861       4.15109597
Si      -6.83031758      -0.29505979      14.26134673
Si      -8.12287719       6.19205455      12.25322936
Si      -2.04721879       6.89144295       2.14297860
Si      -3.95580037       1.62147747       6.23219551
Si      -9.96945914       0.95241257      16.40516544
Si      -4.92173599       4.97490569      10.17212982
Si       1.09192277       5.64397058      -0.00084011
Si       2.31820811      -1.01086434      -1.61086322
Si      -6.75697630       4.30905592       9.81302588
14
Lattice="4.6362947819152085 -2.0219822604723294 -3.2215344050543155 -0.9953412584493646 9.48970663216895 0.28462959045597686 -12.518682629998624 -0.8707644827362003 19.339798018074315" Properties=species:S:1:pos:R:3 unique_starting_index=0 config_type=initial n_minim_iter=13 stress="0.00022207461435165684 -9.31020817298602e-05 -0.00014572553220729964 -9.31020817298602e-05 5.583459848146e-05 7.094049673053237e-05 -0.00014572553220729964 7.094049673053237e-05 9.636355643580688e-05" pbc="T T T"
Si      -8.37117228       0.31703003      15.38203965
Si      -2.40561040       0.96684964       5.13366843
Si      -0.50655682       6.27992985       1.02085356
Si      -6.47211871       5.63011025      11.26922477
Si      -0.75490392       0.40420124       4.15076001
Si      -6.83052963      -0.29546478      14.26008838
Si      -8.12282519       6.19275865      12.25213319
Si      -2.04719947       6.89242467       2.14280483
Si      -3.95598151       1.62149659       6.23171479
Si      -9.96953965       0.95185623      16.40404245
Si      -4.92174759       4.97546330      10.17117841
Si       1.09181055       5.64510366      -0.00114925
Si       2.31814739      -1.01099113      -1.61076720
Si      -6.75701194       4.30947107       9.81221380
