20
Lattice="5.20573 -3.1875902908626754e-16 -3.1875902908626833e-16 3.1875902908626754e-16 5.20573 1.0940467840667653e-30 9.058265377211258e-16 3.0535177740003408e-30 14.793269999999993" Properties=species:S:1:pos:R:3 unique_starting_index=4 config_type=initial n_minim_iter=1 pbc="T T T"
Si       3.06272669       2.84766237       9.11884382
Si       3.06272669       2.35806763       5.67442618
Si       2.14300331       1.99682224       8.09228260
Si       2.14300331       3.20890776       6.70098740
Si       2.14300331       0.24479737      13.07106118
Si       2.14300331       4.96093263       1.72220882
Si       3.06272669       4.59968724      14.09762240
Si       3.06272669       0.60604276       0.69564760
Si       2.66531606       4.20148065       3.03153452
Si       2.66531606       1.00424935      11.76173548
Si       2.54041394       4.13893745      11.93946626
Si       2.54041394       1.06679255       2.85380374
Si       2.54041394       1.59861565       4.36510048
Si       2.54041394       3.60711435      10.42816952
Si       2.66531606       1.53607245      10.25043874
Si       2.66531606       3.66965755       4.54283126
Si       4.98364263       2.94215054      13.82911271
Si       4.98364263       2.26357946       0.96415729
Si       0.22208737       4.86644446       6.43247771
Si       0.22208737       0.33928554       8.36079229
20
Lattice="5.241975062106119 -3.2097839905092537e-16 -2.5973895853398695e-16 3.2214976878783294e-16 5.261104981650647 1.1257894439651427e-30 1.1044482206636203e-15 3.0802129683923225e-30 15.194950465947077" Properties=species:S:1:pos:R:3 unique_starting_index=4 config_type=initial n_minim_iter=2 pbc="T T T"
Si       3.08541241       2.87902838       9.36542388
Si       3.08541241       2.38207660       5.82952659
Si       2.15712604       2.01658533       8.31205913
Si       2.15712604       3.24451965       6.88289133
Si       2.15656266       0.24847589      13.42700182
Si       2.15656266       5.01262909       1.76794864
Si       3.08484902       4.64713782      14.48036656
Si       3.08484902       0.61396716       0.71458390
Si       2.68417451       4.24721084       3.11353421
Si       2.68417451       1.01389414      12.08141626
Si       2.55835589       4.18367782      12.26403791
Si       2.55835589       1.07742716       2.93091256
Si       2.55780055       1.61665835       4.48394102
Si       2.55780055       3.64444663      10.71100944
Si       2.68361917       1.55312533      10.52838779
Si       2.68361917       3.70797965       4.66656268
Si       5.01832278       2.97354112      14.20449810
Si       5.01832278       2.28756386       0.99045237
Si       0.22365228       4.91811635       6.60702286
Si       0.22365228       0.34298863       8.58792760
20
Lattice="10.72911490544721 -6.570873295555253e-16 3.33706422662412e-14 1.0922595753246101e-15 17.839340116892195 -3.4705046366067615e-14 1.1292364977837749e-13 -1.044561182337778e-13 253.74488568893065" Properties=species:S:1:pos:R:3 unique_starting_index=4 config_type=initial n_minim_iter=3 pbc="T T T"
Si       6.60462636      10.08489852     154.69307684
Si       6.60462636       7.75444159      99.05180884
Si       4.24106227       6.35032259     138.59529342
Si       4.24106227      11.48901753     115.14959227
Si       4.12448854       1.16522846     225.92425169
Si       4.12448854      16.67411165      27.82063400
Si       6.48805264      15.26999265     242.02203512
Si       6.48805264       2.56934747      11.72285057
Si       5.56834555      14.61071671      51.46668849
Si       5.56834555       3.22862341     202.27819720
Si       5.27856486      14.33690899     205.91218537
Si       5.27856486       3.50243113      47.83270032
Si       5.16076935       5.69104665      75.40575435
Si       5.16076935      12.14829347     178.33913134
Si       5.45055005       5.41723893     174.70514316
Si       5.45055005      12.42210119      79.03974253
Si      10.26583283      10.12909580     236.79110631
Si      10.26583283       7.71024432      16.95377938
Si       0.46328207      16.62991438     109.91866347
Si       0.46328207       1.20942574     143.82622222
