22
Lattice="9.756871815133538 -0.026834804623526762 -0.6462094816328101 -4.1321461504711765 8.838701030967878 0.6462094816328172 -3.357062781807505 -4.058244246062497 8.23866721843661" Properties=species:S:1:pos:R:3 unique_starting_index=6 config_type=initial n_minim_iter=1 energy=-3573.0315289913096 free_energy=-3573.0315289913096 pbc="T T T"
Si      -3.57330223       5.44303438       7.30631578
Si       2.16413892       1.65755227       5.29438053
Si       6.73536798       3.01471304      -0.30791283
Si      -0.78987769      -0.60869480       4.18336314
Si       6.99215810      -1.42423343       2.29807720
Si      -1.04766903       3.83089076       1.57856091
Si       2.04809616       3.78089048       4.05530407
Si      -3.45826068       3.32033526       8.54658004
Si      -0.94674667       5.91689545       2.58547390
Si       1.03599392       6.42833667       3.98158059
Si       1.77407935       3.92274568       1.70528195
Si       1.89466519       6.13764804       0.61521027
Si       2.03760797      -0.41210613       4.25708662
Si       2.40847054      -2.42588201       5.65319332
Si       1.41242310       0.24436939       7.62345695
Si      -0.54584188      -0.79751914       6.53338527
Si      -1.63694594       1.87531277       1.36779927
Si       3.04398159       3.42765846       5.84985688
Si      -1.52956218       0.14590942       2.38881033
Si      -5.09901953       4.08519813       7.51707743
Si       2.81236283       4.40593312      -0.00000000
Si       3.19990452      -2.04253952       3.79622887
22
Lattice="9.397215482259032 -0.049632169137628857 -0.6200298822563176 -4.001403258944719 8.502875638954665 0.620029882256326 -3.2205388688382146 -3.893018635746508 7.947772928509314" Properties=species:S:1:pos:R:3 unique_starting_index=6 config_type=initial n_minim_iter=2 stress="-0.006448830299945367 -0.0348069149514965 0.0627932304972549 -0.0348069149514965 -0.03876070739428826 -0.040081713234483285 0.0627932304972549 -0.040081713234483285 0.015768848206966272" pbc="T T T"
Si      -3.45430308       5.23609078       7.04623520
Si       2.08311394       1.58788593       5.10890893
Si       6.48018983       2.87944262      -0.29510000
Si      -0.75784669      -0.58335728       4.03478126
Si       6.73994749      -1.38462983       2.21883411
Si      -1.01821164       3.68110280       1.52156761
Si       1.96520352       3.62721466       3.91299167
Si      -3.33699995       3.19714969       8.24287292
Si      -0.92519608       5.68829852       2.49480826
Si       0.98094007       6.17357805       3.84041996
Si       1.70076171       3.76534716       1.64280595
Si       1.81102304       5.89049488       0.59232353
Si       1.96623093      -0.40407489       4.10735297
Si       2.32857179      -2.33735199       5.45296466
Si       1.35998076       0.22967155       7.35544939
Si      -0.52121881      -0.76506390       6.30496697
Si      -1.58079442       1.80569410       1.31996569
Si       2.92659088       3.28399634       5.64375157
Si      -1.47392396       0.14417129       2.30402135
Si      -4.91854127       3.93622012       7.24783712
Si       2.69790611       4.22662174      -0.00000000
Si       3.08833831      -1.97132540       3.66387152
22
Lattice="9.385069900608663 -0.03728557725067341 -0.6447618089902143 -3.9850907547033865 8.497057074679386 0.6447618089902261 -3.2434692822495723 -3.8829757763447574 7.930892205756982" Properties=species:S:1:pos:R:3 unique_starting_index=6 config_type=initial n_minim_iter=3 stress="-0.05967582285556317 -0.002659277856202391 0.010047494685988369 -0.002659277856202391 -0.06214447770099063 -0.006413442938668152 0.010047494685988369 -0.006413442938668152 -0.05797837465263231" pbc="T T T"
Si      -3.46123150       5.24305019       7.04832347
Si       2.06805756       1.59955361       5.09376156
Si       6.47597178       2.88742283      -0.30704148
Si      -0.76894266      -0.57696846       4.02574971
Si       6.72179368      -1.37098502       2.19236883
Si      -1.01560001       3.68197268       1.52733054
Si       1.95690661       3.63641072       3.90514249
Si      -3.35091601       3.20672636       8.23793368
Si      -0.92260676       5.69057815       2.50141598
Si       0.97775377       6.18086730       3.83946392
Si       1.69899502       3.77015459       1.64095503
Si       1.81508128       5.89341256       0.59639932
Si       1.95125373      -0.39385328       4.09142828
Si       2.30661898      -2.32400072       5.42947622
Si       1.33798825       0.24462384       7.33449288
Si      -0.53904482      -0.75459952       6.28993717
Si      -1.58002276       1.80582264       1.32405892
Si       2.91099595       3.29792359       5.62745213
Si      -1.47765590       0.14593233       2.30344007
Si      -4.92536747       3.94119847       7.25159509
Si       2.69998957       4.22988575      -0.00000000
Si       3.07080031      -1.96013067       3.64306520
22
Lattice="9.408904098300324 -0.10773612953429929 -0.7671622871437618 -4.059027727117713 8.489015096883094 0.7671622871437731 -3.3215912799075182 -3.7778726347111524 7.988887976719775" Properties=species:S:1:pos:R:3 unique_starting_index=6 config_type=initial n_minim_iter=4 stress="-0.03833283969957313 -0.013115031397280536 -0.0027439427705029176 -0.013115031397280536 -0.05050775618354511 0.0017514933757663419 -0.0027439427705029176 0.0017514933757663419 -0.029961348600744016" pbc="T T T"
Si      -3.59025503       5.30305327       7.17602900
Si       1.99438492       1.61369717       5.11240147
Si       6.46373218       2.82849683      -0.37247622
Si      -0.81174364      -0.53814622       4.06235763
Si       6.71135225      -1.39720273       2.10932421
Si      -1.05891196       3.68726497       1.58002126
Si       1.88191559       3.64054338       3.92653034
Si      -3.47733394       3.27591870       8.36136419
Si      -0.99363723       5.68984626       2.57125866
Si       0.88967411       6.17268744       3.89894290
Si       1.65213034       3.75382874       1.66223828
Si       1.76800964       5.85922538       0.62711831
Si       1.90279517      -0.37208691       4.08994508
Si       2.25773812      -2.28363411       5.41762931
Si       1.24867461       0.29263714       7.36176966
Si      -0.61224441      -0.69887858       6.32664969
Si      -1.60915646       1.81330655       1.36909801
Si       2.82577518       3.30819670       5.65686395
Si      -1.51058028       0.17806087       2.33202402
Si      -5.05837236       4.01498469       7.38695225
Si       2.67493819       4.19063949      -0.00000000
Si       3.04365641      -1.94280438       3.61086284
22
Lattice="9.408925749509086 -0.03674343925883149 -0.7947266286371949 -3.9946427166375127 8.518923840868553 0.794726628637215 -3.37702905404953 -3.8134925128158144 7.950709017262002" Properties=species:S:1:pos:R:3 unique_starting_index=6 config_type=initial n_minim_iter=5 stress="-0.012308959799024778 -0.0014972610197105949 -0.0007550977233187542 -0.0014972610197105949 -0.013698893785272349 0.0004819884272516703 -0.0007550977233187542 0.0004819884272516703 -0.011353238965936678" pbc="T T T"
Si      -3.56706136       5.33606206       7.16035797
Si       1.98593120       1.64228619       5.08304699
Si       6.47617712       2.90184385      -0.39349344
Si      -0.82192651      -0.54193065       4.05315257
Si       6.68542703      -1.35746144       2.07293539
Si      -1.02978892       3.71648898       1.58507767
Si       1.89173896       3.69499523       3.89755644
Si      -3.47148161       3.28246736       8.34420245
Si      -0.95518374       5.72890665       2.57122752
Si       0.92526014       6.22837971       3.88754603
Si       1.67311104       3.79800236       1.65701067
Si       1.81071510       5.91641310       0.63320069
Si       1.88289092      -0.35198100       4.06316298
Si       2.22154063      -2.26792956       5.37948149
Si       1.22712942       0.31983036       7.31750832
Si      -0.63644760      -0.69687002       6.29369834
Si      -1.59613655       1.81048626       1.37150596
Si       2.83428369       3.36828164       5.63117713
Si      -1.51510006       0.17545543       2.31953189
Si      -5.05746488       4.01989591       7.37392968
Si       2.70714152       4.24109021      -0.00000000
Si       3.01594835      -1.92511797       3.57799119
22
Lattice="9.41355970734992 -0.023712393240189106 -0.8019182836597734 -3.9847738419245347 8.528613373236526 0.8019182836597942 -3.3903424357196017 -3.820983372826993 7.947603777758475" Properties=species:S:1:pos:R:3 unique_starting_index=6 config_type=initial n_minim_iter=6 stress="0.03266732857606657 0.017459399901088055 -0.008039857008783097 0.017459399901088055 0.0488751994698394 0.005131942416730142 -0.008039857008783097 0.005131942416730142 0.021522774783037223" pbc="T T T"
Si      -3.56421802       5.34953227       7.16119843
Si       1.98292450       1.64490921       5.08070621
Si       6.47725821       2.91780034      -0.40193848
Si      -0.82116826      -0.54307226       4.05772136
Si       6.68039270      -1.35354415       2.06497928
Si      -1.02221233       3.72693789       1.58832363
Si       1.89157367       3.71043209       3.88988242
Si      -3.47077677       3.28267506       8.34954225
Si      -0.94732541       5.73764334       2.56719400
Si       0.93692565       6.23915862       3.88562285
Si       1.67843883       3.80992102       1.65311794
Si       1.82155140       5.92615462       0.63512258
Si       1.87444321      -0.34435252       4.06198092
Si       2.21284341      -2.26461421       5.38040978
Si       1.21808984       0.32626993       7.31248119
Si      -0.64119321      -0.69451034       6.29448583
Si      -1.59373150       1.81795883       1.36824961
Si       2.82864306       3.37886334       5.62607857
Si      -1.51644047       0.16730329       2.32152521
Si      -5.05514393       4.02742216       7.38127245
Si       2.71439293       4.25245049      -0.00000000
Si       3.01160864      -1.92234788       3.57284274
22
Lattice="9.427433867771668 -0.012697211264382273 -0.8044991166844817 -3.9806237417579062 8.54583554586298 0.8044991166845035 -3.4015299924044378 -3.8337134479482007 7.953371881719204" Properties=species:S:1:pos:R:3 unique_starting_index=6 config_type=initial n_minim_iter=7 stress="0.051622475600427216 -0.03617090654569549 -0.013986266911962213 -0.03617090654569549 0.01804438089356031 0.008927611068059456 -0.013986266911962213 0.008927611068059456 0.07471082619991178" pbc="T T T"
Si      -3.56066680       5.37377293       7.16447114
Si       1.98201821       1.63885150       5.08817455
Si       6.47047375       2.93830727      -0.41876150
Si      -0.80748753      -0.54810992       4.08024183
Si       6.67796620      -1.35863150       2.06069822
Si      -1.00875735       3.74485686       1.59339985
Si       1.88808114       3.73622757       3.87313004
Si      -3.46050709       3.27242488       8.37213338
Si      -0.93661112       5.75451745       2.56260572
Si       0.94806290       6.24807887       3.88567061
Si       1.67894142       3.82483575       1.65458877
Si       1.83142616       5.94435836       0.64272372
Si       1.86665783      -0.34322495       4.06770126
Si       2.21245066      -2.26052158       5.39076616
Si       1.21925661       0.33016087       7.31064816
Si      -0.63906393      -0.70050519       6.29878311
Si      -1.58813026       1.85319634       1.34998562
Si       2.80248209       3.37662060       5.61760872
Si      -1.51864811       0.12989960       2.33576316
Si      -5.03257732       4.05183047       7.40788537
Si       2.72340506       4.26656917      -0.00000000
Si       3.01295194      -1.92320533       3.57443638
22
Lattice="9.42624102570478 0.00030045737494566605 -0.7939320372631987 -3.9683319622705455 8.550225810010883 0.7939320372632245 -3.398172295571672 -3.848092970765643 7.945373092731372" Properties=species:S:1:pos:R:3 unique_starting_index=6 config_type=initial n_minim_iter=8 stress="0.0508470103235415 -0.02856221501254797 -0.0004907090841356972 -0.02856221501254797 0.024332199047825232 0.0003132258149157943 -0.0004907090841356972 0.0003132258149157943 0.06907863354200823" pbc="T T T"
Si      -3.54484148       5.37373580       7.15028463
Si       1.98821896       1.63706538       5.08538222
Si       6.47053737       2.95157644      -0.41644302
Si      -0.80102152      -0.55331077       4.07932882
Si       6.67590033      -1.35514093       2.06605883
Si      -0.99980428       3.74920636       1.58902050
Si       1.89509802       3.74291135       3.86604426
Si      -3.44514033       3.26368960       8.36181611
Si      -0.92555824       5.75986241       2.55542181
Si       0.95959347       6.25279113       3.87922978
Si       1.68488018       3.83112042       1.65173492
Si       1.84036117       5.95305210       0.64109927
Si       1.86943523      -0.34516170       4.06614331
Si       2.21600307      -2.26262523       5.38995128
Si       1.22673820       0.32754608       7.30427382
Si      -0.63250601      -0.70685199       6.29363817
Si      -1.58350205       1.85815839       1.34230205
Si       2.80687186       3.37813852       5.61084132
Si      -1.51576175       0.12014090       2.33453177
Si      -5.01437556       4.04812835       7.39700308
Si       2.72895453       4.27526314      -0.00000000
Si       3.01403436      -1.92389625       3.57572053
22
Lattice="9.40472143279097 0.001467216044927874 -0.8002431005388462 -3.9582135433411625 8.531197625564133 0.8002431005388754 -3.3977914099829025 -3.8357666251879112 7.926606104280741" Properties=species:S:1:pos:R:3 unique_starting_index=6 config_type=initial n_minim_iter=9 stress="-0.010580506505782593 -0.0021625030258700987 0.013115652336553044 -0.0021625030258700987 -0.012587996456747637 -0.00837188677304705 0.013115652336553044 -0.00837188677304705 -0.009200156719913546" pbc="T T T"
Si      -3.53802567       5.37163570       7.13774682
Si       1.97624702       1.62988723       5.07219605
Si       6.45291215       2.94759574      -0.42334483
Si      -0.79931645      -0.55173751       4.07327663
Si       6.65329105      -1.35552913       2.05416695
Si      -0.99407944       3.74780265       1.58910238
Si       1.88478690       3.73958522       3.85332947
Si      -3.44094964       3.25835300       8.34995093
Si      -0.92465139       5.75342742       2.55711403
Si       0.94942181       6.24000103       3.87500307
Si       1.67875227       3.82425953       1.64615126
Si       1.83855213       5.93984031       0.64257313
Si       1.86249725      -0.34744643       4.05160303
Si       2.21016528      -2.25218557       5.36949207
Si       1.21589693       0.33266915       7.28403297
Si      -0.63576837      -0.70297254       6.28045484
Si      -1.58046499       1.85244520       1.33948066
Si       2.79518526       3.37680335       5.59770827
Si      -1.51167167       0.12130475       2.32889783
Si      -5.01033707       4.04177593       7.38736854
Si       2.72325394       4.26633243      -0.00000000
Si       3.00346501      -1.91714970       3.56318150
22
Lattice="9.402118114638114 -0.00585899002732407 -0.8221418590154798 -3.963762759538843 8.525751823473575 0.8221418590155103 -3.4121739688409645 -3.817598118982405 7.928353550014075" Properties=species:S:1:pos:R:3 unique_starting_index=6 config_type=initial n_minim_iter=10 stress="0.004540960911881597 0.018434387246960122 0.0030426527143406147 0.018434387246960122 0.02165392986823973 -0.0019421637109938517 0.0030426527143406147 -0.0019421637109938517 -0.0072259423791395695" pbc="T T T"
Si      -3.55333795       5.38494973       7.15226884
Si       1.95979737       1.62785931       5.07036781
Si       6.44472072       2.94115258      -0.43845102
Si      -0.80382480      -0.54617587       4.07846206
Si       6.64139132      -1.36046132       2.03584388
Si      -0.99548796       3.75224173       1.59822657
Si       1.86919460       3.74323396       3.84989149
Si      -3.45772776       3.26637877       8.36680457
Si      -0.93283689       5.75566519       2.56988853
Si       0.93185619       6.23622466       3.88310679
Si       1.66860336       3.82202832       1.64724174
Si       1.83343035       5.93384312       0.64992732
Si       1.85208475      -0.34680079       4.04524676
Si       2.20125873      -2.24049961       5.35846501
Si       1.19823095       0.34366701       7.27842622
Si      -0.64790189      -0.69494901       6.28111181
Si      -1.58280066       1.85506131       1.34239943
Si       2.77460012       3.37982994       5.59607935
Si      -1.51464227       0.12207569       2.33227419
Si      -5.02691253       4.05348149       7.40809598
Si       2.71917768       4.25994642      -0.00000000
Si       2.99497207      -1.91172855       3.55310584
22
Lattice="9.375226240294795 -0.14864024818251168 -1.0273974123368164 -4.08195098757177 8.441246182593733 1.0273974123368488 -3.5126472180381696 -3.59351809155862 7.982508607588014" Properties=species:S:1:pos:R:3 unique_starting_index=6 config_type=initial n_minim_iter=11 stress="0.03362844795423429 -0.0030543736276146143 -0.024182673188200304 -0.0030543736276146143 0.030793018689769205 0.015436106158207095 -0.024182673188200304 0.015436106158207095 0.035578099258648334" pbc="T T T"
Si      -3.73824701       5.48805802       7.32333117
Si       1.79548154       1.58771900       5.07645200
Si       6.34763464       2.80459022      -0.57621120
Si      -0.84321756      -0.48244402       4.14097597
Si       6.54679651      -1.44510544       1.87865919
Si      -1.04277498       3.76750413       1.68657485
Si       1.69803442       3.73112794       3.84153263
Si      -3.64119543       3.34490156       8.55871980
Si      -1.05564746       5.73417210       2.68335947
Si       0.73642988       6.14095900       3.97506163
Si       1.55898866       3.76052961       1.64167008
Si       1.75267053       5.79696692       0.70923433
Si       1.74747824      -0.34009119       4.00744697
Si       2.13299541      -2.13686421       5.29914913
Si       1.00760498       0.43686645       7.27327427
Si      -0.75800811      -0.59618728       6.34083852
Si      -1.61921892       1.87809918       1.37469912
Si       2.55636721       3.35939246       5.60714146
Si      -1.54177371       0.13960241       2.37536714
Si      -5.20934476       4.16972191       7.63520690
Si       2.64663763       4.14630297      -0.00000000
Si       2.93128951      -1.87107917       3.47755560
22
Lattice="9.364873143380073 -0.22787882508894883 -1.1402744902944413 -4.149465742738711 8.398494615129716 1.1402744902944721 -3.5688592473920866 -3.4717901526399286 8.016415687330394" Properties=species:S:1:pos:R:3 unique_starting_index=6 config_type=initial n_minim_iter=12 stress="0.028631642447253684 -0.0102811538500252 -0.020152791576102485 -0.0102811538500252 0.01908746480162379 0.012863781755334687 -0.020152791576102485 0.012863781755334687 0.03519423797422421" pbc="T T T"
Si      -3.84507369       5.54481116       7.42073047
Si       1.70821535       1.56901070       5.08415662
Si       6.29714930       2.72706510      -0.64844085
Si      -0.86663909      -0.44359030       4.17572602
Si       6.50000249      -1.48964763       1.79198457
Si      -1.07004785       3.77347707       1.73595970
Si       1.60905777       3.72597923       3.84068966
Si      -3.74647168       3.38819726       8.66485654
Si      -1.13097947       5.72928237       2.75078563
Si       0.62575302       6.09288637       4.03592934
Si       1.50250356       3.72212536       1.63248439
Si       1.71631476       5.72293850       0.73618337
Si       1.69425859      -0.33899240       3.98048634
Si       2.10406417      -2.08552505       5.26563005
Si       0.89955165       0.49445058       7.28023231
Si      -0.82527366      -0.54186315       6.38393129
Si      -1.63960169       1.88567870       1.39681001
Si       2.44338810       3.35109243       5.61978944
Si      -1.55794822       0.15535786       2.39662624
Si      -5.31761503       4.23340113       7.75988016
Si       2.60770370       4.08530790      -0.00000000
Si       2.89800695      -1.84983448       3.43807060
22
Lattice="9.369099714989066 -0.26599758839415366 -1.2035832798212094 -4.185820934810529 8.386279704859668 1.203583279821239 -3.6061589621976475 -3.4125603837236014 8.040487924541987" Properties=species:S:1:pos:R:3 unique_starting_index=6 config_type=initial n_minim_iter=13 stress="-0.017461041816035364 0.011417861813680341 0.02407093532018703 0.011417861813680341 -0.006861637987362581 -0.015364782463790881 0.02407093532018703 -0.015364782463790881 -0.024749213383390905" pbc="T T T"
Si      -3.90983631       5.58801147       7.48050841
Si       1.66120987       1.56173249       5.09868101
Si       6.27603762       2.68860740      -0.69371172
Si      -0.87435462      -0.42215272       4.19690169
Si       6.48011771      -1.51423734       1.73822363
Si      -1.07725164       3.77993685       1.76356279
Si       1.56232282       3.73690251       3.84358623
Si      -3.80976619       3.41208629       8.73419964
Si      -1.17893286       5.74947789       2.79433915
Si       0.56163532       6.07338546       4.08721614
Si       1.47354428       3.70074741       1.61434437
Si       1.71755560       5.69116770       0.74909134
Si       1.66626513      -0.34613098       3.95327178
Si       2.10527204      -2.06128889       5.24614877
Si       0.83291172       0.54142982       7.29139658
Si      -0.86977197      -0.51790145       6.42614355
Si      -1.65528601       1.89558662       1.41455216
Si       2.38896188       3.35051606       5.62531021
Si      -1.57285639       0.16497751       2.41517771
Si      -5.37567957       4.27036088       7.82951905
Si       2.59163939       4.06014106      -0.00000000
Si       2.88147038      -1.83927898       3.41845232
22
Lattice="9.371669135345684 -0.2809502190692552 -1.2412935327706527 -4.200465530683876 8.382314998466828 1.2412935327706793 -3.6319079702748427 -3.382811929031284 8.050698913183917" Properties=species:S:1:pos:R:3 unique_starting_index=6 config_type=initial n_minim_iter=14 stress="-0.023652017510936943 -0.0008808220757438028 0.0006470391365488668 -0.0008808220757438028 -0.024469700281601385 -0.00041301326460079386 0.0006470391365488668 -0.00041301326460079386 -0.023089777799669496" pbc="T T T"
Si      -3.94599773       5.61194888       7.51412038
Si       1.63505939       1.56425702       5.10433120
Si       6.26868928       2.67362092      -0.72071697
Si      -0.88049158      -0.41187093       4.20524333
Si       6.47023779      -1.52209851       1.70507417
Si      -1.08070819       3.78299833       1.77787206
Si       1.53640853       3.74649589       3.84545558
Si      -3.84601496       3.42885984       8.77141588
Si      -1.19651765       5.76142505       2.81239949
Si       0.53400909       6.06367200       4.10846675
Si       1.45423536       3.69571802       1.60983083
Si       1.71715570       5.68215241       0.76266111
Si       1.64333661      -0.34553051       3.94223216
Si       2.09776322      -2.04246082       5.23829942
Si       0.79915373       0.56701996       7.28803779
Si      -0.89195352      -0.50778467       6.44086808
Si      -1.66536346       1.90216942       1.42952175
Si       2.36368768       3.35318613       5.62348491
Si      -1.58554264       0.17292507       2.42721400
Si      -5.40585945       4.28977532       7.86247069
Si       2.58560180       4.05068239      -0.00000000
Si       2.86988058      -1.83188107       3.40470269
22
Lattice="9.373912121785729 -0.2796826450434429 -1.2632276043999147 -4.200260108635197 8.38488317561474 1.2632276043999389 -3.6516207666410945 -3.3729283024232397 8.051907554906759" Properties=species:S:1:pos:R:3 unique_starting_index=6 config_type=initial n_minim_iter=15 stress="0.010793808156259063 -0.012162604931702632 -0.025603346735704996 -0.012162604931702632 -0.000496953930875844 0.016342940052263086 -0.025603346735704996 0.016342940052263086 0.018557359054500636" pbc="T T T"
Si      -3.96608344       5.63494340       7.52916634
Si       1.62000591       1.56639159       5.11169978
Si       6.26297150       2.67104440      -0.74286614
Si      -0.87626230      -0.40564499       4.20988529
Si       6.46104192      -1.52370292       1.67698017
Si      -1.07090190       3.78691240       1.78596881
Si       1.52301080       3.76667267       3.84202226
Si      -3.86565752       3.43247239       8.79477369
Si      -1.20104949       5.78755069       2.81399140
Si       0.52457891       6.05185709       4.12634347
Si       1.43163704       3.69607647       1.60025266
Si       1.73405716       5.69082893       0.78190248
Si       1.61687733      -0.34917483       3.92556408
Si       2.10365575      -2.02568848       5.23791615
Si       0.78019520       0.59588707       7.27000507
Si      -0.90182691      -0.51824800       6.45165489
Si      -1.67395682       1.91111188       1.44413596
Si       2.35717392       3.35658603       5.61263862
Si      -1.59942914       0.17833179       2.43926893
Si      -5.41363759       4.29819741       7.87099919
Si       2.58682601       4.05260027      -0.00000000
Si       2.86114568      -1.82630547       3.39433997
22
Lattice="9.367774184926906 -0.17920957991983985 -1.139566471321315 -4.106541549304936 8.421616576236989 1.1395664713213358 -3.5911750660521866 -3.508066700019758 7.992674813168256" Properties=species:S:1:pos:R:3 unique_starting_index=6 config_type=initial n_minim_iter=16 stress="0.0368911846395114 -0.0026881799609917703 -0.01684620286361042 -0.0026881799609917703 0.03439569945702394 0.010753144358418254 -0.01684620286361042 0.010753144358418254 0.03860708807876829" pbc="T T T"
Si      -3.85340104       5.60274593       7.40223368
Si       1.70284340       1.57034138       5.12305537
Si       6.29018808       2.74284382      -0.69503217
Si      -0.80899793      -0.44119765       4.16634252
Si       6.48405639      -1.48156735       1.73005296
Si      -0.99338361       3.77716064       1.73000760
Si       1.61046956       3.81478482       3.82633229
Si      -3.75154458       3.35224962       8.68770698
Si      -1.11886366       5.85877245       2.69848385
Si       0.65342969       6.03903828       4.09538812
Si       1.44061402       3.70709713       1.56191513
Si       1.84635620       5.79550655       0.78026524
Si       1.61144737      -0.37283569       3.89728669
Si       2.19410174      -2.05629443       5.29419095
Si       0.88830927       0.60668085       7.21240957
Si      -0.83516434      -0.64060392       6.43075967
Si      -1.67319174       1.91472579       1.45356602
Si       2.51128850       3.35066562       5.55210634
Si      -1.60923837       0.18049088       2.44056847
Si      -5.25651744       4.20200790       7.67867526
Si       2.63061632       4.12120350      -0.00000000
Si       2.88829956      -1.84363814       3.42655417
22
Lattice="9.339297587839123 -0.21583546636941978 -1.1939066177945623 -4.127774044300193 8.380366687798437 1.1939066177945787 -3.61212472978226 -3.4398914061473507 7.988377773063959" Properties=species:S:1:pos:R:3 unique_starting_index=6 config_type=initial n_minim_iter=17 stress="0.05697439725159876 -0.0010519301858401507 -0.011396925883777083 -0.0010519301858401507 0.05599787178456939 0.0072748019397986564 -0.011396925883777083 0.0072748019397986564 0.05764586041517085" pbc="T T T"
Si      -3.90357513       5.65327582       7.43143033
Si       1.64136481       1.53627796       5.13819512
Si       6.23359324       2.68679355      -0.76011965
Si      -0.78298935      -0.42042663       4.17959267
Si       6.42961631      -1.52012354       1.65627603
Si      -0.96860837       3.77984941       1.75085406
Si       1.54770117       3.83742044       3.80878510
Si      -3.79950743       3.34549230       8.74849742
Si      -1.16347715       5.89875202       2.69801874
Si       0.59889610       5.95273983       4.15450435
Si       1.36782964       3.65312982       1.51893362
Si       1.87842302       5.76585867       0.81257958
Si       1.53517999      -0.39045833       3.83387342
Si       2.22819869      -2.01175387       5.29035903
Si       0.82696675       0.69146020       7.17579819
Si      -0.87442178      -0.66116905       6.46944415
Si      -1.70504245       1.93449469       1.48917226
Si       2.47089763       3.32220658       5.51032526
Si      -1.63899667       0.20004778       2.47805251
Si      -5.26735848       4.20836607       7.69311213
Si       2.60576177       4.08226561      -0.00000000
Si       2.86358643      -1.82786343       3.39723558
22
Lattice="9.292609049572349 -0.29863558799102663 -1.3026266075217008 -4.183221482869304 8.30315748302228 1.3026266075217146 -3.6526986207686476 -3.3013905722392103 7.99357337594371" Properties=species:S:1:pos:R:3 unique_starting_index=6 config_type=initial n_minim_iter=18 stress="0.007441242708530971 -0.0038316530031359238 -0.0005723062660207146 -0.0038316530031359238 0.0038842512003042316 0.000365310328126214 -0.0005723062660207146 0.000365310328126214 0.009887035424683338" pbc="T T T"
Si      -3.99578741       5.71668556       7.50507570
Si       1.53053606       1.48986986       5.14131965
Si       6.14651282       2.59102304      -0.85669847
Si      -0.77564782      -0.38635980       4.20666102
Si       6.34692003      -1.58448894       1.54962711
Si      -0.96829079       3.78419618       1.79112428
Si       1.43280082       3.83691381       3.78691235
Si      -3.89028793       3.36468560       8.85027184
Si      -1.25219413       5.90885537       2.73822583
Si       0.48396959       5.84742068       4.23472141
Si       1.27732786       3.57400131       1.47834213
Si       1.87258866       5.68127574       0.84629038
Si       1.44746203      -0.40054303       3.75885196
Si       2.23414039      -1.94947035       5.25534754
Si       0.71212803       0.78905814       7.14728299
Si      -0.94866666      -0.63807253       6.51523124
Si      -1.74501177       1.95763811       1.52999994
Si       2.36367672       3.28041454       5.46937786
Si      -1.67233636       0.22369843       2.52419551
Si      -5.32555974       4.24314717       7.76620004
Si       2.55469378       4.00226095      -0.00000000
Si       2.81995521      -1.80001308       3.34547338
22
Lattice="9.274172172187676 -0.26168459757457496 -1.2677422043286997 -4.141942747144339 8.30199124230843 1.2677422043287134 -3.634714911879143 -3.3380522994735227 7.9581513531703" Properties=species:S:1:pos:R:3 unique_starting_index=6 config_type=initial n_minim_iter=19 stress="0.02150493160344174 0.009953688138621597 0.007921724313648477 0.009953688138621597 0.030745117015289213 -0.005056536823274755 0.007921724313648477 -0.005056536823274755 0.015151364609314318" pbc="T T T"
Si      -3.94862635       5.70445300       7.45597438
Si       1.54538255       1.48770472       5.12986955
Si       6.14255811       2.61959373      -0.84816056
Si      -0.75383170      -0.40114915       4.18994479
Si       6.33825235      -1.57164469       1.56053959
Si      -0.93997952       3.78399567       1.76991917
Si       1.45102671       3.84959864       3.76820656
Si      -3.84472409       3.33646548       8.80631191
Si      -1.23054931       5.92761471       2.69880793
Si       0.52526360       5.83885169       4.22656999
Si       1.27255391       3.56786836       1.45999141
Si       1.91506212       5.71370962       0.84701462
Si       1.44028775      -0.40335660       3.73158136
Si       2.26002699      -1.95860109       5.25934342
Si       0.74164894       0.80457729       7.11113673
Si      -0.93423595      -0.68164656       6.49815994
Si      -1.74881918       1.96435494       1.54285876
Si       2.41339715       3.26957334       5.42713256
Si      -1.68511932       0.22757144       2.53101879
Si      -5.25860180       4.20469358       7.68303479
Si       2.56611471       4.02015333      -0.00000000
Si       2.81972863      -1.79986844       3.34520457
22
Lattice="9.275467659896217 -0.24255670829106515 -1.2294292886277312 -4.125138161494674 8.311219478217216 1.2294292886277458 -3.6114703582197416 -3.3728444075443575 7.948951685376457" Properties=species:S:1:pos:R:3 unique_starting_index=6 config_type=initial n_minim_iter=20 stress="-0.018583621402848315 0.010319550791318523 0.0157032202883466 0.010319550791318523 -0.009003799195147044 -0.010023564124203964 0.0157032202883466 -0.010023564124203964 -0.025170725081810248" pbc="T T T"
Si      -3.90233028       5.67170457       7.42543628
Si       1.57386906       1.49267330       5.11153863
Si       6.15942887       2.65062616      -0.81364187
Si      -0.76054142      -0.41871268       4.18322130
Si       6.35530585      -1.55937828       1.60798376
Si      -0.94912636       3.78663715       1.75294469
Si       1.47926519       3.82968205       3.76573038
Si      -3.80043436       3.33004121       8.76259355
Si      -1.21359370       5.90933578       2.68464338
Si       0.55868467       5.86488417       4.20244295
Si       1.29943999       3.57741906       1.47090415
Si       1.91184887       5.72895788       0.82949060
Si       1.47307431      -0.39687392       3.74650873
Si       2.25955299      -1.98570929       5.26430830
Si       0.78007731       0.77329037       7.11946108
Si      -0.91364789      -0.68803057       6.47804753
Si      -1.74540851       1.96265380       1.53949294
Si       2.45168882       3.26461016       5.42172309
Si      -1.68249806       0.22542233       2.52722859
Si      -5.22153163       4.18150716       7.63888803
Si       2.57516475       4.03433139      -0.00000000
Si       2.83199865      -1.80770055       3.35976120
22
Lattice="9.237073906157795 -0.2663418446591365 -1.173237615851655 -4.130548128668064 8.2663803737061 1.1732376158516649 -3.542203607906794 -3.368765895371123 7.9293864057442915" Properties=species:S:1:pos:R:3 unique_starting_index=6 config_type=initial n_minim_iter=21 stress="0.05012284306105062 -0.007500373956268143 0.04118095702193113 -0.007500373956268143 0.0431601127593207 -0.02628632572339659 0.04118095702193113 -0.02628632572339659 0.054910416427749215" pbc="T T T"
Si      -3.80389117       5.62837506       7.38365186
Si       1.56184985       1.43254753       5.06144115
Si       6.12530184       2.66292120      -0.79382247
Si      -0.74748112      -0.46585291       4.19903753
Si       6.33670189      -1.61530091       1.69470764
Si      -0.96601624       3.81692360       1.71897216
Si       1.45647093       3.75713587       3.73034887
Si      -3.70564731       3.30834113       8.72320887
Si      -1.24973844       5.91971020       2.62012485
Si       0.57502323       5.77056759       4.23849184
Si       1.24971305       3.49191070       1.43069140
Si       1.95511698       5.72200428       0.82539897
Si       1.44991213      -0.41768432       3.69089456
Si       2.35344743      -2.01004818       5.30926156
Si       0.82482018       0.81368777       7.10398743
Si      -0.90100588      -0.76505747       6.49869500
Si      -1.83637237       2.01539158       1.63255765
Si       2.55801294       3.15377539       5.29710760
Si      -1.75852854       0.27927915       2.63227881
Si      -5.07154160       4.08044101       7.47006636
Si       2.55326289       4.00001927      -0.00000000
Si       2.84743515      -1.81755387       3.37807439
