22
Lattice="9.237073906157752 -0.2663418446591702 -1.173237615851676 -4.130548128668021 8.266380373706133 1.1732376158516846 -3.5422036079067794 -3.3687658953711357 7.929386405744311" Properties=species:S:1:pos:R:3 unique_starting_index=6 config_type=initial n_minim_iter=1 energy=-3586.106507453784 free_energy=-3586.106507453784 pbc="T T T"
Si      -3.80389117       5.62837506       7.38365186
Si       1.56184985       1.43254753       5.06144115
Si       6.12530184       2.66292120      -0.79382247
Si      -0.74748112      -0.46585291       4.19903753
Si       6.33670189      -1.61530091       1.69470764
Si      -0.96601624       3.81692360       1.71897216
Si       1.45647093       3.75713587       3.73034887
Si      -3.70564731       3.30834113       8.72320887
Si      -1.24973844       5.91971020       2.62012485
Si       0.57502323       5.77056759       4.23849184
Si       1.24971305       3.49191070       1.43069140
Si       1.95511698       5.72200428       0.82539897
Si       1.44991213      -0.41768432       3.69089456
Si       2.35344743      -2.01004818       5.30926156
Si       0.82482018       0.81368777       7.10398743
Si      -0.90100588      -0.76505747       6.49869500
Si      -1.83637237       2.01539158       1.63255765
Si       2.55801294       3.15377539       5.29710760
Si      -1.75852854       0.27927915       2.63227881
Si      -5.07154160       4.08044101       7.47006636
Si       2.55326289       4.00001927      -0.00000000
Si       2.84743515      -1.81755387       3.37807439
22
Lattice="9.226156523244477 -0.2650367376941876 -1.181696653078077 -4.1247679275362135 8.257027201584277 1.1816966530780866 -3.546765280455979 -3.360190525455495 7.919481758399418" Properties=species:S:1:pos:R:3 unique_starting_index=6 config_type=initial n_minim_iter=2 stress="-0.005710172862026205 -0.0026726672448597662 0.01994246338022577 -0.0026726672448597662 -0.008191257314656298 -0.012729526607667492 0.01994246338022577 -0.012729526607667492 -0.004004180492412583" pbc="T T T"
Si      -3.80578618       5.62628673       7.38102434
Si       1.55464296       1.43478214       5.05345583
Si       6.11880130       2.66046930      -0.79729512
Si      -0.75125897      -0.46250379       4.19329307
Si       6.32628396      -1.61101667       1.68432927
Si      -0.96589411       3.81354770       1.72015407
Si       1.45140044       3.75564651       3.72618868
Si      -3.70969615       3.30998787       8.71677688
Si      -1.24976023       5.91458648       2.62186525
Si       0.57074908       5.76710626       4.23575342
Si       1.24722198       3.48919446       1.42969078
Si       1.95277627       5.71647752       0.82603728
Si       1.44401033      -0.41444311       3.68372834
Si       2.34424744      -2.00364973       5.29761650
Si       0.81623092       0.81781313       7.09344448
Si      -0.90698255      -0.75988521       6.48979098
Si      -1.83546913       2.01392224       1.63352354
Si       2.54953315       3.15441734       5.28875488
Si      -1.75893779       0.28043317       2.63072688
Si      -5.07203612       4.07986388       7.46765487
Si       2.55069430       3.99599524      -0.00000000
Si       2.83969562      -1.81261363       3.36889255
22
Lattice="9.229352495839843 -0.2648019268432854 -1.188622564213411 -4.125900499372382 8.260024977093202 1.18862256421342 -3.553634945806308 -3.3580803717560754 7.92204935871097" Properties=species:S:1:pos:R:3 unique_starting_index=6 config_type=initial n_minim_iter=3 stress="0.005043449930343242 0.00479744574334142 0.0031014693805642727 0.00479744574334142 0.009497003985396935 -0.001979707132982752 0.0031014693805642727 -0.001979707132982752 0.001981178866578177" pbc="T T T"
Si      -3.81145068       5.63125139       7.38777177
Si       1.55153963       1.43768893       5.05397582
Si       6.12124383       2.66159697      -0.80056031
Si      -0.75453147      -0.46082683       4.19440856
Si       6.32655344      -1.61026278       1.67945097
Si      -0.96700829       3.81560784       1.72290015
Si       1.44949305       3.75872694       3.72764080
Si      -3.71657130       3.31478829       8.72260966
Si      -1.25139323       5.91768221       2.62594101
Si       0.56844570       5.77107285       4.23879555
Si       1.24681232       3.49114685       1.43073082
Si       1.95319613       5.71906830       0.82743306
Si       1.44170834      -0.41275224       3.68325381
Si       2.34087329      -2.00171745       5.29610834
Si       0.81153446       0.82139488       7.09461629
Si      -0.91190881      -0.75732465       6.49131853
Si      -1.83700070       2.01513782       1.63608623
Si       2.54677909       3.15821217       5.28937745
Si      -1.76120585       0.28164294       2.63267190
Si      -5.07829094       4.08409437       7.47458569
Si       2.55172600       3.99761153      -0.00000000
Si       2.83785877      -1.81144115       3.36671340
22
Lattice="9.230006144420434 -0.2672946811587429 -1.1903909662396208 -4.128436756358311 8.25956837984675 1.1903909662396297 -3.554184256791776 -3.355654217447249 7.92394154236523" Properties=species:S:1:pos:R:3 unique_starting_index=6 config_type=initial n_minim_iter=4 stress="0.0054529945787512215 -0.002366252713762984 0.0018788749850679296 -0.002366252713762984 0.0032563601753105883 -0.0011993096669851802 0.0018788749850679296 -0.0011993096669851802 0.006963403149181588" pbc="T T T"
Si      -3.81426178       5.63185740       7.39055002
Si       1.55039039       1.43753533       5.05490301
Si       6.12091139       2.65944221      -0.80147449
Si      -0.75511934      -0.46016016       4.19542160
Si       6.32700230      -1.61143647       1.67864757
Si      -0.96836065       3.81528272       1.72378249
Si       1.44791334       3.75795120       3.72851994
Si      -3.71893513       3.31600572       8.72541603
Si      -1.25342111       5.91708369       2.62734688
Si       0.56623656       5.77022487       4.24018285
Si       1.24575613       3.49027674       1.43117278
Si       1.95164137       5.71745397       0.82785518
Si       1.44131995      -0.41268691       3.68375869
Si       2.34063486      -2.00138267       5.29659466
Si       0.81017545       0.82173112       7.09608635
Si      -0.91280269      -0.75622285       6.49276876
Si      -1.83787065       2.01534638       1.63703885
Si       2.54530741       3.15742277       5.29042413
Si      -1.76185158       0.28240185       2.63351741
Si      -5.08082107       4.08536265       7.47729365
Si       2.55078469       3.99613685      -0.00000000
Si       2.83791094      -1.81147445       3.36677529
22
Lattice="9.23099218850126 -0.2690079374406101 -1.195857880474761 -4.130405911430464 8.259741464561559 1.19585788047477 -3.5583008536887455 -3.35194268970764 7.925694503601829" Properties=species:S:1:pos:R:3 unique_starting_index=6 config_type=initial n_minim_iter=5 stress="0.005636465323938534 0.0008155354027153891 0.003330153600198524 0.0008155354027153891 0.006393541316899421 -0.0021256791627633454 0.003330153600198524 -0.0021256791627633454 0.00511589793714298" pbc="T T T"
Si      -3.81864681       5.63466580       7.39600606
Si       1.54677320       1.43875100       5.05464335
Si       6.12088067       2.65895684      -0.80447920
Si      -0.75745730      -0.45924668       4.19693931
Si       6.32649733      -1.61220736       1.67519326
Si      -0.97005286       3.81637225       1.72554632
Si       1.44462653       3.75838649       3.72875519
Si      -3.72347905       3.31948504       8.73017370
Si      -1.25575054       5.91765008       2.63156649
Si       0.56211415       5.77160907       4.24245110
Si       1.24525713       3.49052171       1.43139682
Si       1.95050277       5.71608659       0.82840760
Si       1.44019450      -0.41213185       3.68324340
Si       2.33801273      -1.99954561       5.29412801
Si       0.80529794       0.82383419       7.09728690
Si      -0.91648699      -0.75286080       6.49429768
Si      -1.83943241       2.01536485       1.64012601
Si       2.54325366       3.15862828       5.29085072
Si      -1.76401005       0.28475806       2.63484378
Si      -5.08623254       4.08783844       7.48142637
Si       2.55029314       3.99536677      -0.00000000
Si       2.83634567      -1.81047531       3.36491831
22
Lattice="9.279809278771213 -0.3072933641923337 -1.2991050589096416 -4.185685627205461 8.287902345723582 1.299105058909651 -3.642098292093369 -3.2913288643104956 7.987442503944334" Properties=species:S:1:pos:R:3 unique_starting_index=6 config_type=initial n_minim_iter=6 stress="-0.006601404710847787 0.0006661814095119975 -0.004920006180328485 0.0006661814095119975 -0.005982976681313119 0.003140502173061064 -0.004920006180328485 0.003140502173061064 -0.007026635512487055" pbc="T T T"
Si      -3.91477324       5.70022996       7.52427200
Si       1.48556553       1.46649032       5.06769917
Si       6.14085508       2.65443860      -0.86024222
Si      -0.80444708      -0.44460904       4.23941952
Si       6.34244746      -1.63371884       1.62063827
Si      -1.00918903       3.84555881       1.76227556
Si       1.38742705       3.77241624       3.74802298
Si      -3.81978434       3.39631445       8.84768472
Si      -1.30634914       5.94447266       2.72043792
Si       0.48322345       5.81319143       4.29953325
Si       1.24172910       3.50445402       1.43800383
Si       1.93317365       5.70121795       0.83887764
Si       1.42732876      -0.40556920       3.68790925
Si       2.29984765      -1.97353463       5.26700458
Si       0.71530970       0.86246964       7.14856486
Si      -0.98616173      -0.68958136       6.54943867
Si      -1.87856380       2.04514406       1.69346469
Si       2.49577621       3.17700774       5.30359168
Si      -1.81114756       0.31004538       2.68385082
Si      -5.18182341       4.15365644       7.59308287
Si       2.54706183       3.99030449      -0.00000000
Si       2.81885549      -1.79931111       3.34416872
22
Lattice="9.283634101068763 -0.3130771528268438 -1.3122171159538227 -4.192542143393205 8.288936590541688 1.312217115953832 -3.6516348146234243 -3.2818992251760584 7.993778445889654" Properties=species:S:1:pos:R:3 unique_starting_index=6 config_type=initial n_minim_iter=7 stress="-0.007524608959985794 2.6679422356096745e-05 -0.006764955185379194 2.6679422356096745e-05 -0.007499841978506809 0.004318156457883393 -0.006764955185379194 0.004318156457883393 -0.00754163709809335" pbc="T T T"
Si      -3.92555562       5.70782349       7.53976748
Si       1.47600650       1.46853862       5.06776142
Si       6.14156900       2.65301610      -0.86751645
Si      -0.81044526      -0.44315590       4.24438833
Si       6.34261818      -1.63788117       1.61379991
Si      -1.01415477       3.84943950       1.76622807
Si       1.37870225       3.77226747       3.74939011
Si      -3.83091171       3.40579276       8.86129489
Si      -1.31287207       5.94497805       2.72878697
Si       0.47481333       5.81553328       4.30530345
Si       1.24175848       3.50529012       1.43745133
Si       1.93021997       5.69556375       0.83930273
Si       1.42345722      -0.40278203       3.68847499
Si       2.29351580      -1.96980886       5.26499147
Si       0.70188807       0.86683962       7.15447571
Si      -0.99495223      -0.67977305       6.55632711
Si      -1.88447817       2.04876702       1.70047974
Si       2.48919014       3.17802160       5.30299299
Si      -1.81699161       0.31392796       2.69078545
Si      -5.19244018       4.16028102       7.60551582
Si       2.54554598       3.98792972      -0.00000000
Si       2.81599964      -1.79748818       3.34078066
22
Lattice="9.23776198667055 -0.32151849865668825 -1.3948277582248672 -4.180885966362628 8.243774208675646 1.394827758224877 -3.704160727432109 -3.210649174042885 7.959653907616567" Properties=species:S:1:pos:R:3 unique_starting_index=6 config_type=initial n_minim_iter=8 stress="0.02910967882331075 0.0007224678042921 0.005001113712085435 0.0007224678042921 0.029780358512399907 -0.0031922741364653847 0.005001113712085435 -0.0031922741364653847 0.0286485172480689" pbc="T T T"
Si      -3.93227456       5.73089270       7.59132173
Si       1.37816104       1.47449209       5.00322655
Si       6.09826877       2.68324694      -0.93081868
Si      -0.84500403      -0.46141043       4.26302779
Si       6.29081484      -1.66131697       1.56159960
Si      -1.03127072       3.87914526       1.76315993
Si       1.28995239       3.75088170       3.69662611
Si      -3.83778654       3.45049489       8.89047258
Si      -1.32470064       5.91098033       2.75935222
Si       0.43367657       5.80789524       4.29698168
Si       1.22446604       3.49493878       1.44614047
Si       1.89838043       5.66183246       0.84830934
Si       1.38132246      -0.37206093       3.66267223
Si       2.21513219      -1.92360155       5.20030168
Si       0.63217107       0.89500810       7.11134456
Si      -1.04958696      -0.62856625       6.51351343
Si      -1.91875256       2.08393250       1.75819622
Si       2.44507213       3.15517288       5.22105741
Si      -1.87166810       0.33554095       2.73859650
Si      -5.18698288       4.17008525       7.59628545
Si       2.52843801       3.96112786      -0.00000000
Si       2.76680063      -1.76608383       3.28241307
22
Lattice="9.214322262888425 -0.32678802671539103 -1.411158948621192 -4.175797192931724 8.220294580017745 1.4111589486212017 -3.708751084591861 -3.187487690794827 7.942731417504273" Properties=species:S:1:pos:R:3 unique_starting_index=6 config_type=initial n_minim_iter=9 stress="0.009678472523449118 0.0070132549624306465 0.008671827277605154 0.0070132549624306465 0.01618900161500079 -0.005535337032486728 0.008671827277605154 -0.005535337032486728 0.005201821030706498" pbc="T T T"
Si      -3.92493374       5.72866364       7.60102484
Si       1.34542823       1.47269777       4.97950832
Si       6.08321194       2.68849584      -0.94714087
Si      -0.85220878      -0.47268089       4.26162110
Si       6.27493827      -1.67387084       1.55206414
Si      -1.03588479       3.88454716       1.75286552
Si       1.25982150       3.73401388       3.68111032
Si      -3.83127668       3.46220891       8.88987229
Si      -1.33114191       5.89467381       2.76088952
Si       0.42328993       5.79448042       4.29363750
Si       1.21628372       3.48218169       1.44597495
Si       1.88832340       5.64576917       0.84834247
Si       1.36893710      -0.36396854       3.64909391
Si       2.19846284      -1.91314795       5.18184189
Si       0.61724464       0.90228440       7.09438894
Si      -1.06230378      -0.61819751       6.49675646
Si      -1.93491172       2.09456123       1.78082188
Si       2.44105991       3.13718840       5.18479536
Si      -1.89088211       0.34749137       2.75793606
Si      -5.17004036       4.15958476       7.57306848
Si       2.51926253       3.94675328      -0.00000000
Si       2.75278559      -1.75713785       3.26578623
22
Lattice="9.194610826600648 -0.3527055498347458 -1.4513094129448174 -4.191006914558514 8.191503555492652 1.4513094129448272 -3.725133997182768 -3.1385306882652877 7.940061101243394" Properties=species:S:1:pos:R:3 unique_starting_index=6 config_type=initial n_minim_iter=10 stress="-0.0031662539817835147 0.016319088248316224 0.023715598240729534 0.016319088248316224 0.011983045360255119 -0.015137966311691436 0.023715598240729534 -0.015137966311691436 -0.013582940284964675" pbc="T T T"
Si      -3.93354953       5.73756621       7.66217530
Si       1.27262871       1.47726405       4.95141023
Si       6.08188662       2.69107081      -0.98641666
Si      -0.87119079      -0.50079302       4.26145335
Si       6.27363559      -1.71494190       1.53734146
Si      -1.05577494       3.90064629       1.72919521
Si       1.19100998       3.69920898       3.67860774
Si      -3.84476598       3.51104789       8.92647776
Si      -1.36580126       5.88250441       2.77942142
Si       0.38830067       5.77410825       4.31630476
Si       1.19735678       3.45298062       1.44139599
Si       1.87598457       5.61792840       0.84858483
Si       1.34880662      -0.35532567       3.62375633
Si       2.18563380      -1.90075234       5.16063967
Si       0.58080352       0.92832801       7.09147626
Si      -1.09720505      -0.59870238       6.49866511
Si      -1.98899068       2.12916752       1.85080248
Si       2.44870417       3.09372238       5.11792128
Si      -1.94990937       0.38508221       2.82213982
Si      -5.14747512       4.14526809       7.54056803
Si       2.50180196       3.91939901      -0.00000000
Si       2.73473841      -1.74561812       3.24437584
22
Lattice="9.198951174408837 -0.3442039364568094 -1.3866738130684 -4.18512286016892 8.199019801434893 1.3866738130684089 -3.675763780791141 -3.181316434102588 7.939145400911389" Properties=species:S:1:pos:R:3 unique_starting_index=6 config_type=initial n_minim_iter=11 stress="-0.0440812013780227 -0.0057385842455967406 -0.01355359733809065 -0.0057385842455967406 -0.04940843101316142 0.008651432606655598 -0.01355359733809065 0.008651432606655598 -0.04041818711737081" pbc="T T T"
Si      -3.89914824       5.70363306       7.62481357
Si       1.31389257       1.47417128       4.96879087
Si       6.11374263       2.68051945      -0.94930287
Si      -0.84731673      -0.51454276       4.22800860
Si       6.30716808      -1.71309963       1.58368071
Si      -1.04578334       3.88229416       1.70100564
Si       1.22808148       3.68830726       3.71113680
Si      -3.81837832       3.49271493       8.88844827
Si      -1.36380370       5.90073104       2.73700778
Si       0.42543171       5.75344957       4.32442772
Si       1.19489107       3.43512401       1.42685185
Si       1.90728071       5.63992641       0.84105557
Si       1.36380553      -0.37312926       3.61471768
Si       2.25069552      -1.93405248       5.20213762
Si       0.63695090       0.92319105       7.09808983
Si      -1.06299362      -0.65124258       6.51229355
Si      -1.98282511       2.12143388       1.83919473
Si       2.50023696       3.07589855       5.12636368
Si      -1.93840248       0.38153530       2.81278172
Si      -5.10183148       4.11233509       7.48662448
Si       2.50691416       3.92740794      -0.00000000
Si       2.76159370      -1.76276018       3.27623579
22
Lattice="9.191252932899872 -0.34200658967212283 -1.3778751491256929 -4.179888662471328 8.192962208704678 1.377875149125702 -3.667115220007402 -3.1841203816999855 7.931474154817024" Properties=species:S:1:pos:R:3 unique_starting_index=6 config_type=initial n_minim_iter=12 stress="0.012788495568065106 0.0009275876944167369 0.005544829284194267 0.0009275876944167369 0.01364959169275947 -0.003539334663036597 0.005544829284194267 -0.003539334663036597 0.01219640323802916" pbc="T T T"
Si      -3.87866972       5.69392214       7.64317449
Si       1.28919340       1.48385976       4.95510295
Si       6.13798306       2.69490854      -0.95655748
Si      -0.84856042      -0.54632750       4.20764667
Si       6.32730511      -1.73203067       1.59849605
Si      -1.04933070       3.88791926       1.66617481
Si       1.20595918       3.66713307       3.72382748
Si      -3.80688371       3.51795638       8.88803163
Si      -1.37561005       5.91178326       2.72221938
Si       0.43383842       5.73913431       4.34032607
Si       1.18604517       3.41483514       1.41510347
Si       1.92648193       5.64817227       0.83759562
Si       1.35593003      -0.37433484       3.59114808
Si       2.27433971      -1.94291224       5.20925477
Si       0.64499487       0.94127527       7.09387853
Si      -1.06902386      -0.67061219       6.51637068
Si      -2.01206692       2.14434495       1.88164122
Si       2.54027481       3.04337969       5.08171685
Si      -1.97610684       0.40135681       2.84975730
Si      -5.05485588       4.08659563       7.42770808
Si       2.50568213       3.92547781      -0.00000000
Si       2.76206886      -1.76306348       3.27679950
22
Lattice="9.183290292655823 -0.3252364569808364 -1.3767952344767607 -4.161324860700821 8.192800177951927 1.37679523447677 -3.671505524212242 -3.193005473709643 7.915739239032143" Properties=species:S:1:pos:R:3 unique_starting_index=6 config_type=initial n_minim_iter=13 stress="0.025137952428640767 0.006153786700282648 0.006217005834289022 0.006153786700282648 0.030850621873836342 -0.00396839345665167 0.006217005834289022 -0.00396839345665167 0.02120991100585553" pbc="T T T"
Si      -3.86011211       5.68740330       7.64635703
Si       1.27613234       1.49855757       4.93703293
Si       6.15355989       2.72027331      -0.95977030
Si      -0.85565438      -0.56541952       4.19242915
Si       6.33378279      -1.72980468       1.60191107
Si      -1.04888320       3.89296033       1.64617744
Si       1.19783924       3.66038342       3.72331009
Si      -3.79482493       3.53387929       8.87550954
Si      -1.37401963       5.92582967       2.71063773
Si       0.44737111       5.73880958       4.34654307
Si       1.18548085       3.40892028       1.40509052
Si       1.94836908       5.66385145       0.83488883
Si       1.34554769      -0.37108178       3.56919617
Si       2.28202064      -1.94444096       5.20510151
Si       0.64561155       0.95884417       7.08085041
Si      -1.07854167      -0.68249940       6.51064871
Si      -2.01911631       2.15741373       1.90210758
Si       2.55985080       3.03400250       5.05300830
Si      -1.99724457       0.40628023       2.86273094
Si      -5.02586039       4.07665651       7.39042689
Si       2.51098272       3.93378186      -0.00000000
Si       2.75589238      -1.75912096       3.26947200
22
Lattice="9.174779358432117 -0.29285417780851836 -1.3827008713453046 -4.128369175201203 8.198713789285495 1.3827008713453144 -3.688705861133504 -3.2089759233142527 7.891142131442039" Properties=species:S:1:pos:R:3 unique_starting_index=6 config_type=initial n_minim_iter=14 stress="0.03038386443000414 0.013785118018453387 0.0036400625297253967 0.013785118018453387 0.04318083422076617 -0.0023234979521998974 0.0036400625297253967 -0.0023234979521998974 0.02158464834374129" pbc="T T T"
Si      -3.83752146       5.68328424       7.64306109
Si       1.26572790       1.52184766       4.90986902
Si       6.17044010       2.76401885      -0.96382939
Si      -0.86971493      -0.58401523       4.17714047
Si       6.33357730      -1.71302471       1.59857224
Si      -1.04637510       3.90166021       1.63078191
Si       1.19413608       3.66212609       3.71400166
Si      -3.77945261       3.55163768       8.85497152
Si      -1.36206451       5.94757255       2.69932332
Si       0.46803109       5.75014736       4.34816453
Si       1.19104863       3.41329197       1.39379097
Si       1.97874391       5.69043643       0.83254782
Si       1.32993312      -0.36353914       3.54297759
Si       2.27950894      -1.94041338       5.19181881
Si       0.63973688       0.98161802       7.05859431
Si      -1.09412078      -0.69157902       6.49735116
Si      -2.01426088       2.16992112       1.91650209
Si       2.57215055       3.03749439       5.02577438
Si      -2.01645598       0.40293644       2.86536775
Si      -5.00080440       4.07626962       7.35734091
Si       2.52320509       3.95292981      -0.00000000
Si       2.74303675      -1.75091505       3.25422063
22
Lattice="9.1703571552239 -0.29014110873810406 -1.3833512315752041 -4.124046456802259 8.195844864288382 1.383351231575214 -3.6892043185934917 -3.208548072443688 7.885954831834596" Properties=species:S:1:pos:R:3 unique_starting_index=6 config_type=initial n_minim_iter=15 stress="0.009776523203876931 0.0020385112093574474 -2.538108556716634e-05 0.0020385112093574474 0.011668909350252039 1.6201067927936076e-05 -2.538108556716634e-05 1.6201067927936076e-05 0.008475315722166296" pbc="T T T"
Si      -3.83220148       5.67706917       7.64077786
Si       1.26450888       1.52533535       4.90139037
Si       6.17307076       2.77020848      -0.96369260
Si      -0.87399689      -0.58926050       4.17306604
Si       6.33233339      -1.70952113       1.60121322
Si      -1.05042803       3.90142800       1.62852820
Si       1.19058318       3.65630578       3.71288879
Si      -3.77544429       3.55705762       8.84964743
Si      -1.36200835       5.95023035       2.69609500
Si       0.46943117       5.74634066       4.34954721
Si       1.18970373       3.41186451       1.39086874
Si       1.98214435       5.69033245       0.83291342
Si       1.32539233      -0.36344403       3.53640762
Si       2.28139761      -1.93881561       5.18985983
Si       0.63771247       0.98508647       7.05304140
Si      -1.09534779      -0.69297205       6.49508609
Si      -2.01161435       2.16912817       1.91643040
Si       2.57108565       3.03716808       5.02324453
Si      -2.01680207       0.40226099       2.86271030
Si      -4.99881362       4.07589525       7.35287566
Si       2.52315535       3.95285188      -0.00000000
Si       2.74057642      -1.74934459       3.25130180
22
Lattice="9.158108633891299 -0.2782889948940507 -1.3942606223685288 -4.108139130985584 8.189724744782206 1.3942606223685385 -3.700229428475235 -3.205544333118992 7.869253389170746" Properties=species:S:1:pos:R:3 unique_starting_index=6 config_type=initial n_minim_iter=16 stress="-0.0030444782382648802 -0.0032371492475063647 0.004686358855888408 -0.0032371492475063647 -0.006049581355491998 -0.0029913621307399315 0.004686358855888408 -0.0029913621307399315 -0.0009781660902532412" pbc="T T T"
Si      -3.81888947       5.66901683       7.64903745
Si       1.24509644       1.54131540       4.87492755
Si       6.18484204       2.79554067      -0.97131996
Si      -0.88983047      -0.60796594       4.16007223
Si       6.33172747      -1.70554552       1.60006521
Si      -1.05845430       3.90699614       1.61447656
Si       1.17291625       3.64280432       3.70918116
Si      -3.76844767       3.58140380       8.84057335
Si      -1.36145002       5.96062596       2.69138239
Si       0.47218599       5.74189768       4.35466988
Si       1.18617547       3.41002056       1.38240788
Si       1.99479264       5.69442243       0.83489533
Si       1.30917738      -0.35981209       3.51458350
Si       2.27956680      -1.93092871       5.17787099
Si       0.62507205       1.00128483       7.03435806
Si      -1.10656001      -0.69394497       6.48684551
Si      -2.01379446       2.17769974       1.93431111
Si       2.57553498       3.03118176       5.00009355
Si      -2.03513034       0.40678017       2.86915983
Si      -4.98523867       4.07441017       7.32920289
Si       2.52498475       3.95571788      -0.00000000
Si       2.72893960      -1.74191666       3.23749638
22
Lattice="9.142957125479585 -0.24201383613633065 -1.3935950322684703 -4.068856605395348 8.191253971155417 1.3935950322684802 -3.7117339029858067 -3.2248046408328386 7.836964289257108" Properties=species:S:1:pos:R:3 unique_starting_index=6 config_type=initial n_minim_iter=17 stress="-0.004113250909909188 0.0005632763594088729 -0.0026047639298924694 0.0005632763594088729 -0.0035903514653413023 0.0016626537614695411 -0.0026047639298924694 0.0016626537614695411 -0.0044727966896366865" pbc="T T T"
Si      -3.78568766       5.65374653       7.64154602
Si       1.23357342       1.56935161       4.83939069
Si       6.20885364       2.84430820      -0.96925120
Si      -0.90801624      -0.63384841       4.13378245
Si       6.33535320      -1.68717895       1.60397857
Si      -1.05850573       3.91295181       1.58901330
Si       1.16972253       3.63395599       3.70318184
Si      -3.74582670       3.60445523       8.80621549
Si      -1.34230584       5.98342813       2.67162660
Si       0.49708602       5.74418905       4.35080151
Si       1.18838786       3.41926355       1.36959999
Si       2.02488723       5.71776501       0.83800360
Si       1.28926797      -0.35552205       3.48616278
Si       2.28068508      -1.92322413       5.16533768
Si       0.62207021       1.01914952       6.99896068
Si      -1.11061206      -0.70730707       6.46736430
Si      -2.00242776       2.18479347       1.94895727
Si       2.59399925       3.03165031       4.97356889
Si      -2.05398358       0.40446520       2.86339540
Si      -4.95581180       4.06997586       7.28160205
Si       2.53705026       3.97462007      -0.00000000
Si       2.71561161      -1.73340923       3.22168463
22
Lattice="9.13660129086628 -0.20338144735824262 -1.3909694881526582 -4.031139072652071 8.201753772110326 1.390969488152669 -3.7252016397328096 -3.250783393283326 7.81082091406822" Properties=species:S:1:pos:R:3 unique_starting_index=6 config_type=initial n_minim_iter=18 stress="-0.005414505188071364 0.003827631379121451 -0.005221662806575746 0.003827631379121451 -0.0018612470249579586 0.003333053412961785 -0.005221662806575746 0.003333053412961785 -0.007857729416615207" pbc="T T T"
Si      -3.75637880       5.64342245       7.63180068
Si       1.23162966       1.59678358       4.81175649
Si       6.23662406       2.89178281      -0.96416607
Si      -0.92397892      -0.65428467       4.10977437
Si       6.34123023      -1.66473909       1.60809493
Si      -1.05595994       3.91971094       1.56998972
Si       1.17580028       3.63402642       3.70104654
Si      -3.72792426       3.62365332       8.77498698
Si      -1.31559173       6.00804073       2.65542696
Si       0.52320669       5.75500211       4.34152641
Si       1.19605088       3.44160161       1.36079777
Si       2.05131918       5.74281445       0.84356318
Si       1.27461101      -0.35325549       3.46929450
Si       2.27829519      -1.91460946       5.15539395
Si       0.62019535       1.02769218       6.96725773
Si      -1.10704425      -0.71693036       6.45002314
Si      -1.98418155       2.18869275       1.95758575
Si       2.61211576       3.03911563       4.96070756
Si      -2.06830723       0.39806210       2.85011335
Si      -4.93570712       4.07268885       7.24420465
Si       2.55273111       3.99918617      -0.00000000
Si       2.70569983      -1.72708242       3.20992571
22
Lattice="9.13856088093403 -0.1481980444692888 -1.3782532982120979 -3.9819098267748667 8.226764355830015 1.3782532982121094 -3.740077373076388 -3.2977222585560826 7.782781568165731" Properties=species:S:1:pos:R:3 unique_starting_index=6 config_type=initial n_minim_iter=19 stress="-0.016479707178907146 0.005961319052009737 -0.011566665887612711 0.005961319052009737 -0.01094570886860328 0.007383149131116484 -0.011566665887612711 0.007383149131116484 -0.020284889665242535" pbc="T T T"
Si      -3.71992124       5.63425127       7.60744039
Si       1.24772815       1.62884180       4.78880750
Si       6.27510471       2.94803321      -0.94860652
Si      -0.93743210      -0.67007620       4.07956425
Si       6.35061485      -1.62839532       1.61572076
Si      -1.04527441       3.92699037       1.55359447
Si       1.20345364       3.64843031       3.70321731
Si      -3.70797890       3.63530080       8.73138808
Si      -1.26594217       6.03984668       2.63449415
Si       0.56324216       5.77881754       4.31678898
Si       1.21370185       3.49098542       1.35620666
Si       2.07887126       5.77744543       0.85525556
Si       1.26448153      -0.35385337       3.46599258
Si       2.27136584      -1.90312272       5.14828741
Si       0.62513185       1.02032473       6.92752600
Si      -1.08455761      -0.72706745       6.42657490
Si      -1.94593951       2.18515915       1.95496400
Si       2.63675077       3.05894824       4.96680429
Si      -2.07556548       0.38181836       2.81597727
Si      -4.92065930       4.08396041       7.20607086
Si       2.57832553       4.03928316      -0.00000000
Si       2.69924175      -1.72296015       3.20226413
22
Lattice="9.15071486648512 -0.11215578411612391 -1.3675207204680953 -3.9543346201691834 8.252963055736602 1.3675207204681072 -3.750895302435744 -3.3346173404748565 7.773634029931024" Properties=species:S:1:pos:R:3 unique_starting_index=6 config_type=initial n_minim_iter=20 stress="-0.0060295104139623116 0.0033178278902260307 0.0005399056295759582 0.0033178278902260307 -0.0029495118803875625 -0.00034462859208882516 0.0005399056295759582 -0.00034462859208882516 -0.008147322053805158" pbc="T T T"
Si      -3.70128620       5.63659038       7.59062002
Si       1.26760477       1.64572051       4.78509084
Si       6.30623643       2.97632977      -0.93676087
Si      -0.94035134      -0.67258082       4.05940008
Si       6.35889241      -1.60411278       1.62102247
Si      -1.03424110       3.93418177       1.55053473
Si       1.23132213       3.67007379       3.71423395
Si      -3.70623733       3.63855715       8.71039489
Si      -1.22557926       6.06048819       2.62569628
Si       0.58934103       5.80335324       4.29387247
Si       1.23027552       3.54042745       1.35969242
Si       2.08844104       5.79891630       0.86788734
Si       1.26493072      -0.35674546       3.47976156
Si       2.26227740      -1.89471609       5.14793775
Si       0.62976011       1.00114954       6.90574668
Si      -1.05750679      -0.72811342       6.41394161
Si      -1.91367429       2.18123102       1.95216318
Si       2.65574217       3.07395892       4.98696715
Si      -2.08076363       0.36846923       2.78666688
Si      -4.92104924       4.10087649       7.18899157
Si       2.59819012       4.07040364      -0.00000000
Si       2.69990978      -1.72338656       3.20305665
22
Lattice="9.16657557236887 -0.10082494430522328 -1.37717988746939 -3.950734570377155 8.272120027403492 1.3771798874694017 -3.7687675514656664 -3.3446641868535787 7.780906788799895" Properties=species:S:1:pos:R:3 unique_starting_index=6 config_type=initial n_minim_iter=21 stress="-0.0001949211863444266 0.006690676815904542 -0.00045510068454679046 0.006690676815904542 0.00601615288483766 0.00029049652304563437 -0.00045510068454679046 0.00029049652304563437 -0.004465664708887516" pbc="T T T"
Si      -3.71200146       5.65718676       7.59121855
Si       1.27672194       1.64759915       4.79554551
Si       6.31373733       2.97344937      -0.93553133
Si      -0.94066435      -0.65283363       4.05880042
Si       6.35474641      -1.59376810       1.60818139
Si      -1.02531999       3.94224399       1.56686812
Si       1.25095417       3.69854474       3.72210637
Si      -3.72988025       3.63410133       8.71643811
Si      -1.20710422       6.06554744       2.63804325
Si       0.59075144       5.82851071       4.28102165
Si       1.24146033       3.57771624       1.37028956
Si       2.07881994       5.80353925       0.87852251
Si       1.26928383      -0.35492127       3.49988513
Si       2.24121586      -1.88587507       5.14286353
Si       0.62013176       0.98432218       6.90238428
Si      -1.04626512      -0.71231585       6.41061723
Si      -1.89038488       2.17751845       1.94937650
Si       2.64992341       3.08797469       5.01586847
Si      -2.08347304       0.35904533       2.76503832
Si      -4.94849416       4.12954829       7.20871017
Si       2.60792050       4.08564755      -0.00000000
Si       2.69890401      -1.72274456       3.20186345
