4
Lattice="5.8490061900000008 0.0 0.0 -4.914628366362754 3.1713248700189798 0.0 0.0 0.0 4.5524179999999994" Properties=species:S:1:pos:R:3
P -0.549909971950319 1.8853336072770638 4.1585564518939995
P 1.484287795587566 1.2859912627419166 0.393861548106
P -3.8975294825938112 2.8716536977514062 1.882347451894
P 4.8319073062310576 0.2996711722675736 2.6700705481059996
