4
Lattice="1.9425829368243004 -3.364652344496051 1.3140107621530381e-17 1.9425829368243006 3.364652344496051 -1.3140107621530381e-17 4.851608169128221e-34 -2.4779351581849194e-17 6.357484201276547" Properties=species:S:1:pos:R:3 cutoff=-1.0 nneightol=1.2 n_minim_iter=5 pbc="T T T"
Si       1.94258294       1.12155078       0.39511517
Si       1.94258294      -1.12155078       3.57385727
Si       1.94258294       1.12155078       2.78362693
Si       1.94258294      -1.12155078      -0.39511517
