20
Lattice="6.7257664422533825 -4.857242585941092e-16 -1.5894568310232305e-11 1.7286721174243126e-16 2.3936718669103016 -7.357415415343333e-14 2.99480722799084e-11 3.8951355881905164e-13 12.672488841406151" Properties=species:S:1:pos:R:3 unique_starting_index=4 config_type=initial n_minim_iter=1 energy=-3993.2288287844003 free_energy=-3993.2288287844003 pbc="T T T"
Si       2.88984095       1.83360643       8.01716288
Si       2.88984095       0.56006543       4.65532596
Si       3.43818244       1.03290429       7.05091097
Si       3.43818244       1.36076757       5.62157787
Si       3.83592549       0.63677050      10.99157038
Si       3.83592549       1.75690137       1.68091846
Si       3.28758400       2.22974023      11.95782229
Si       3.28758400       0.16393164       0.71466655
Si       3.40892188       1.46524878       2.45888896
Si       3.40892188       0.92842309      10.21359988
Si       3.42175105       2.19223139      10.59854385
Si       3.42175105       0.20144048       2.07394500
Si       3.31684456       0.26841285       3.87735546
Si       3.31684456       2.12525902       8.79513338
Si       3.30401539       0.99539546       8.41018942
Si       3.30401539       1.39827641       4.26229943
Si      10.23240298       0.70713250      12.13785482
Si      10.23240298       1.68653937       0.53463402
Si      -3.50663654       2.88337530       5.80161040
Si      -3.50663654      -0.48970344       6.87087845
20
Lattice="6.550292297441107 -4.730517922436849e-16 -1.547988162651453e-11 1.8726481490803998e-16 2.593033777681305 -7.932173538467847e-14 2.8269790204959767e-11 3.6984835543029844e-13 11.962325907754254" Properties=species:S:1:pos:R:3 unique_starting_index=4 config_type=initial n_minim_iter=2 stress="2.3947538736535474 -1.9845935932759965e-15 1.5586034198577963e-11 -1.9845935932759965e-15 10.510238235926048 -4.3652316349017846e-14 1.5586034198577963e-11 -4.3652316349017846e-14 8.99435189176292" pbc="T T T"
Si       2.82700845       1.99116698       7.56679005
Si       2.82700845       0.60186680       4.39553586
Si       3.34374228       1.11643298       6.65534930
Si       3.34374228       1.47660080       5.30697661
Si       3.72328385       0.69465009      10.37669882
Si       3.72328385       1.89838369       1.58562709
Si       3.20655001       2.41294987      11.28813956
Si       3.20655001       0.18008391       0.67418635
Si       3.31795377       1.59078670       2.32952955
Si       3.31795377       1.00224708       9.63279636
Si       3.32923567       2.37699320      10.00320857
Si       3.32923567       0.21604058       1.95911734
Si       3.23233853       0.29426981       3.65163340
Si       3.23233853       2.29876397       8.31069251
Si       3.22105662       1.08047631       7.94028029
Si       3.22105662       1.51255746       4.02204562
Si       9.96662114       0.76241611      11.45663798
Si       9.96662114       1.83061767       0.50568793
Si      -3.41632884       3.12713456       5.47547502
Si      -3.41632884      -0.53410078       6.48685089
20
Lattice="5.504996206015663 -3.975621550079872e-16 -1.300960106113501e-11 1.971921219083377e-16 2.7304960241257814 -4.12117243994181e-14 1.7492876668672953e-11 4.71011906226629e-13 7.40208859909065" Properties=species:S:1:pos:R:3 unique_starting_index=4 config_type=initial n_minim_iter=3 stress="-15.965019095988774 -8.214152093545506e-15 7.398790929815586e-11 -8.214152093545506e-15 135.6857379583594 2.523692460561838e-12 7.398790929815586e-11 2.523692460561838e-12 15.368058723655974" pbc="T T T"
Si       2.44567665       2.13696157       4.67581998
Si       2.44567665       0.59353445       2.72626861
Si       2.78499992       1.15440774       4.12249365
Si       2.78499992       1.57608829       3.27959495
Si       3.05931956       0.77171356       6.42731291
Si       3.05931956       1.95878246       0.97477568
Si       2.71999628       2.51965575       6.98063925
Si       2.71999628       0.21084028       0.42144935
Si       2.77842955       1.70369126       1.47467885
Si       2.77842955       1.02680476       5.92740975
Si       2.78096380       2.52235310       6.18598544
Si       2.78096380       0.20814293       1.21610316
Si       2.72656665       0.33844325       2.22636545
Si       2.72656665       2.39205277       5.17572315
Si       2.72403240       1.15710508       4.91714746
Si       2.72403240       1.57339094       2.48494114
Si       8.38073852       0.77848396       7.07980202
Si       8.38073852       1.95201207       0.32228658
Si      -2.87574231       3.31726008       3.37875772
Si      -2.87574231      -0.58676406       4.02333088
20
Lattice="5.459948806687391 -3.9430890280294743e-16 -1.2903143459318308e-11 1.978623147616201e-16 2.7397761044912845 -1.0164313881705652e-14 1.6806971163655055e-11 6.350284544145155e-13 7.1118485536761105" Properties=species:S:1:pos:R:3 unique_starting_index=4 config_type=initial n_minim_iter=4 stress="-41.798617705775804 1.3584020171740375e-13 1.0412868189640806e-10 1.3584020171740375e-13 148.97647932273506 4.027054619684776e-11 1.0412868189640806e-10 4.027054619684776e-11 2.2531274809898947" pbc="T T T"
Si       2.43676397       2.14691383       4.49312532
Si       2.43676397       0.59286227       2.61872323
Si       2.75974515       1.15541933       3.96009117
Si       2.75974515       1.58435677       3.15175738
Si       3.02318484       0.77702578       6.17464751
Si       3.02318484       1.96275032       0.93720104
Si       2.70020365       2.52530738       6.70768166
Si       2.70020365       0.21446872       0.40416689
Si       2.75406678       1.71082551       1.42051622
Si       2.75406678       1.02895059       5.69133234
Si       2.75524265       2.53068421       5.94205445
Si       2.75524265       0.20909189       1.16979410
Si       2.70588202       0.34093746       2.13540806
Si       2.70588202       2.39883865       4.97644049
Si       2.70470616       1.16079616       4.72571838
Si       2.70470616       1.57897994       2.38613017
Si       8.31024953       0.77652205       6.80312462
Si       8.31024953       1.96325405       0.30872394
Si      -2.85030072       3.33314211       3.24720034
Si      -2.85030072      -0.59336600       3.86464821
20
Lattice="5.531576354717245 -3.9948173150477773e-16 -1.3072416205380726e-11 1.9882276337204315e-16 2.7530753213768557 3.917503919045819e-14 1.6147960398177484e-11 9.023241594549678e-13 6.832988983222732" Properties=species:S:1:pos:R:3 unique_starting_index=4 config_type=initial n_minim_iter=5 stress="-2.702456485642872 1.0542038867053774e-13 -3.109917682989063e-11 1.0542038867053774e-13 168.69495059756565 6.147312010909239e-12 -3.109917682989063e-11 6.147312010909239e-12 -15.859940443693997" pbc="T T T"
Si       2.47922932       2.16357286       4.31631937
Si       2.47922932       0.58950246       2.51666962
Si       2.79301761       1.15526232       3.80541318
Si       2.79301761       1.59781300       3.02757580
Si       3.05234704       0.78703520       5.93316411
Si       3.05234704       1.96604012       0.89982488
Si       2.73855875       2.53179998       6.44407029
Si       2.73855875       0.22127534       0.38891869
Si       2.78839651       1.72373501       1.36906843
Si       2.78839651       1.02934032       5.46392055
Si       2.78855514       2.54334180       5.70827749
Si       2.78855514       0.20973352       1.12471149
Si       2.74317984       0.34719734       2.04742606
Si       2.74317984       2.40587798       4.78556292
Si       2.74302121       1.16680414       4.54120598
Si       2.74302121       1.58627118       2.29178300
Si       8.41861475       0.77446029       6.53365943
Si       8.41861475       1.97861503       0.29932955
Si      -2.88703840       3.35515269       3.11716494
Si      -2.88703840      -0.60207737       3.71582405
20
Lattice="5.500948077522319 -3.972698056079654e-16 -1.300003438120062e-11 2.0056913669789496e-16 2.77725713927597 2.676819061597614e-13 1.4906446204361737e-11 2.1491607231771768e-12 6.307643825092702" Properties=species:S:1:pos:R:3 unique_starting_index=4 config_type=initial n_minim_iter=6 stress="-4.818845149505866 2.2900021924627026e-13 -1.4436241656816297e-10 2.2900021924627026e-13 230.41008879788163 9.918653334224295e-11 -1.4436241656816297e-10 9.918653334224295e-11 -65.8389028425386" pbc="T T T"
Si       2.50529826       2.21139358       3.98047242
Si       2.50529826       0.56586356       2.32717141
Si       2.76931282       1.13356247       3.51780077
Si       2.76931282       1.64369467       2.78984306
Si       2.99564982       0.82276501       5.48099332
Si       2.99564982       1.95449213       0.82665050
Si       2.73163526       2.52219104       5.94366497
Si       2.73163526       0.25506610       0.36397885
Si       2.76454443       1.75710298       1.28131831
Si       2.76454443       1.02015416       5.02632552
Si       2.76102463       2.55992825       5.26672608
Si       2.76102463       0.21732889       1.04091774
Si       2.73640365       0.36847441       1.87250360
Si       2.73640365       2.40878273       4.43514022
Si       2.73992345       1.17129968       4.19473965
Si       2.73992345       1.60595746       2.11290417
Si       8.36728502       0.75069345       6.01403288
Si       8.36728502       2.02656369       0.29361094
Si      -2.86633694       3.41519226       2.86021097
Si      -2.86633694      -0.63793512       3.44743286
20
Lattice="5.491619790067942 -3.965961314422939e-16 -1.2977989443507092e-11 2.0210427900534492e-16 2.798514046980098 1.0871606451003186e-12 1.3760384157779238e-11 6.613116715392913e-12 5.822689122127796" Properties=species:S:1:pos:R:3 unique_starting_index=4 config_type=initial n_minim_iter=7 stress="4.0655927528333695 4.242320745878838e-13 -3.480140211667447e-10 4.242320745878838e-13 354.86000989050325 -2.356722224808989e-11 -3.480140211667447e-10 -2.356722224808989e-11 -143.07687427573688" pbc="T T T"
Si       2.55096254       2.26980698       3.66372735
Si       2.55096254       0.52870707       2.15896177
Si       2.75159130       1.09451719       3.26174806
Si       2.75159130       1.70399686       2.56094107
Si       2.94065725       0.87054996       5.07030633
Si       2.94065725       1.92796409       0.75238279
Si       2.74002849       2.49377421       5.47228563
Si       2.74002849       0.30473983       0.35040350
Si       2.75231673       1.77859984       1.21732118
Si       2.75231673       1.01991420       4.60536794
Si       2.74877373       2.58208015       4.88301526
Si       2.74877373       0.21643390       0.93967386
Si       2.73930306       0.37934282       1.69402338
Si       2.73930306       2.41917123       4.12866574
Si       2.74284606       1.18282313       3.85101842
Si       2.74284606       1.61569092       1.97167070
Si       8.35714709       0.70989492       5.55007327
Si       8.35714709       2.08861912       0.27261585
Si      -2.86552730       3.48787615       2.63872871
Si      -2.86552730      -0.68936210       3.18396041
20
Lattice="5.468922131202698 -3.9495694234841315e-16 -1.292434953608333e-11 2.0240587598073946e-16 2.8026901220101657 4.236210826751506e-12 1.3188296157266423e-11 2.3504894664424824e-11 5.580610809539182" Properties=species:S:1:pos:R:3 unique_starting_index=4 config_type=initial n_minim_iter=8 stress="-10.113451724829016 4.4451547632056964e-13 -2.998403605924742e-10 4.4451547632056964e-13 282.3684769064796 -3.467635222607491e-10 -2.998403605924742e-10 -3.467635222607491e-10 -136.93644599533437" pbc="T T T"
Si       2.58632573       2.32835703       3.49753065
Si       2.58632573       0.47433309       2.08308016
Si       2.73006141       1.07754574       3.13012005
Si       2.73006141       1.72514438       2.45049076
Si       2.88259640       0.92701197       4.87338557
Si       2.88259640       1.87567815       0.70722524
Si       2.73886072       2.47889080       5.24079616
Si       2.73886072       0.32379932       0.33981465
Si       2.74167675       1.80163819       1.19603518
Si       2.74167675       1.00105193       4.38457563
Si       2.72676448       2.64828202       4.69077175
Si       2.72676448       0.15440810       0.88983906
Si       2.72724538       0.40029313       1.59427022
Si       2.72724538       2.40239700       3.98634059
Si       2.74215765       1.24693696       3.68014447
Si       2.74215765       1.55575316       1.90046634
Si       8.32588774       0.66395769       5.32100835
Si       8.32588774       2.13873244       0.25960246
Si      -2.85696561       3.54007750       2.53070295
Si      -2.85696561      -0.73738738       3.04990786
20
Lattice="5.461822538104261 -3.944442210893175e-16 -1.2907571527443432e-11 2.0285773221587382e-16 2.8089460697850304 3.030283374453005e-11 1.2765991690330237e-11 1.6174815675365543e-10 5.401913209409656" Properties=species:S:1:pos:R:3 unique_starting_index=4 config_type=initial n_minim_iter=9 stress="-19.460051180696993 3.7282162036029073e-13 -3.74225692217537e-10 3.7282162036029073e-13 173.18643524350804 2.391653421006005e-08 -3.74225692217537e-10 2.391653421006005e-08 -177.88798900957602" pbc="T T T"
Si       2.60933311       2.37283392       3.37475348
Si       2.60933311       0.43611215       2.02715973
Si       2.72429021       1.07010867       3.03256165
Si       2.72429021       1.73883740       2.36935156
Si       2.85248943       0.96836088       4.72811633
Si       2.85248943       1.84058519       0.67379687
Si       2.73753233       2.47458171       5.07030817
Si       2.73753233       0.33436436       0.33160504
Si       2.74089336       1.80764218       1.17523674
Si       2.74089336       1.00130389       4.22667647
Si       2.71754679       2.69201170       4.54646726
Si       2.71754679       0.11693437       0.85544595
Si       2.72092918       0.40316914       1.52571986
Si       2.72092918       2.40577693       3.87619335
Si       2.74427575       1.28753866       3.55640256
Si       2.74427575       1.52140741       1.84551065
Si       8.31272551       0.62396301       5.15154344
Si       8.31272551       2.18498306       0.25036977
Si      -2.85090297       3.58945610       2.45058684
Si      -2.85090297      -0.78051003       2.95132637
20
Lattice="5.45288468261019 -3.937987433522356e-16 -1.2886449272319463e-11 2.030272304787724e-16 2.811291760751417 7.100734248847373e-11 1.2523952293832061e-11 3.791546884066524e-10 5.299494545442368" Properties=species:S:1:pos:R:3 unique_starting_index=4 config_type=initial n_minim_iter=10 stress="-34.60975010562316 5.916204419004904e-13 -4.742229237992759e-10 5.916204419004904e-13 155.78920840406875 1.632453287272653e-07 -4.742229237992759e-10 1.632453287272653e-07 -235.3769234163464" pbc="T T T"
Si       2.62821867       2.40476065       3.30691091
Si       2.62821867       0.40653111       1.99258364
Si       2.71132640       1.10618278       2.97922953
Si       2.71132640       1.70510898       2.32026502
Si       2.82466601       0.99911477       4.64233091
Si       2.82466601       1.81217699       0.65716364
Si       2.74155829       2.51182866       4.97001229
Si       2.74155829       0.29946310       0.32948225
Si       2.73902735       1.82686726       1.16461248
Si       2.73902735       0.98442450       4.13488207
Si       2.71277500       2.70499666       4.46768577
Si       2.71277500       0.10629510       0.83180877
Si       2.71385734       0.42122138       1.48513479
Si       2.71385734       2.39007038       3.81435975
Si       2.74010968       1.29935078       3.48155605
Si       2.74010968       1.51194098       1.81793850
Si       8.29903256       0.57756133       5.05305655
Si       8.29903256       2.23373043       0.24643800
Si      -2.84614787       3.63937631       2.40330928
Si      -2.84614787      -0.82808455       2.89618527
20
Lattice="5.374122468730048 -3.881106625216817e-16 -1.2700315632453845e-11 2.0488844416814842e-16 2.832443527851088 1.4126184357633776e-07 1.0780118898286972e-11 7.48698266659064e-07 4.561593653509965" Properties=species:S:1:pos:R:3 unique_starting_index=4 config_type=initial n_minim_iter=11 stress="-661.9226985704477 -7.572451645385002e-14 8.169766631172971e-10 -7.572451645385002e-14 -324.674245298741 0.002709935892408589 8.169766631172971e-10 0.002709935892408589 -317.84970756208963" pbc="T T T"
Si       2.71638346       2.51804970       2.81836994
Si       2.71638346       0.31439458       1.74322385
Si       2.64132892       1.31565567       2.58780592
Si       2.64132892       1.51678861       1.97378788
Si       2.65773901       1.10182813       4.02402072
Si       2.65773901       1.73061615       0.53757308
Si       2.73279355       2.73187771       4.25458476
Si       2.73279355       0.10056657       0.30700903
Si       2.72031491       2.06760502       1.07592361
Si       2.72031491       0.76483926       3.48567018
Si       2.67678843       2.80604498       3.88704872
Si       2.67678843       0.02639930       0.67454507
Si       2.65380756       0.65138327       1.20487335
Si       2.65380756       2.18106100       3.35672044
Si       2.69733404       1.38982306       2.95534197
Si       2.69733404       1.44262121       1.60625183
Si       8.16286184       0.17757584       4.35252364
Si       8.16286184       2.65486844       0.20907016
Si      -2.78873938       4.07109051       2.07172700
Si      -2.78873938      -1.23864623       2.48986679
20
Lattice="5.373476635004754 -3.8806402265120033e-16 -1.2698789375431415e-11 2.0657119890765427e-16 2.8326123790497504 8.481576173963839e-07 1.0766658482951806e-11 4.483967641434712e-06 4.555897895700922" Properties=species:S:1:pos:R:3 unique_starting_index=4 config_type=initial n_minim_iter=12 stress="-673.5255073247013 5.635551168589682e-13 8.030988301853741e-10 5.635551168589682e-13 -340.2013341399055 0.016391345875682875 8.030988301853741e-10 0.016391345875682875 -335.0879741385842" pbc="T T T"
Si       2.71698237       2.51914709       2.81465723
Si       2.71698237       0.31346977       1.74124151
Si       2.64083668       1.31735992       2.58469693
Si       2.64083668       1.51525695       1.97120182
Si       2.65649427       1.10284209       4.01919069
Si       2.65649427       1.72977477       0.53670805
Si       2.73263996       2.73366774       4.24915113
Si       2.73263996       0.09894912       0.30674762
Si       2.72009322       2.06965620       1.07521756
Si       2.72009322       0.76296066       3.48068118
Si       2.67650926       2.80679571       3.88255694
Si       2.67650926       0.02582115       0.67334180
Si       2.65338342       0.65335014       1.20273220
Si       2.65338342       2.17926673       3.35316654
Si       2.69696738       1.39048860       2.95129116
Si       2.69696738       1.44212826       1.60460759
Si       8.16166291       0.17436532       4.34711703
Si       8.16166291       2.65825154       0.20878172
Si      -2.78818627       4.07455956       2.06916925
Si      -2.78818627      -1.24194270       2.48672950
20
Lattice="5.374145883121417 -3.8811235649083916e-16 -1.2700370966168794e-11 2.1694204416589354e-16 2.835733311500083 5.14119492263262e-06 1.0744487864357391e-11 2.7196280907874742e-05 4.546516425838536" Properties=species:S:1:pos:R:3 unique_starting_index=4 config_type=initial n_minim_iter=13 stress="-662.2180144909797 1.2490616988639249e-12 7.239874384791133e-10 1.2490616988639249e-12 -375.91802667442573 0.09892199651837204 7.239874384791133e-10 0.09892199651837204 -357.4882916209642" pbc="T T T"
Si       2.72362709       2.52361013       2.80789440
Si       2.72362709       0.31215037       1.73862716
Si       2.64558058       1.32302750       2.58186888
Si       2.64558058       1.51273301       1.96465269
Si       2.65051879       1.10575068       4.01188681
Si       2.65051879       1.73000983       0.53463475
Si       2.72856531       2.74090406       4.23791313
Si       2.72856531       0.09485644       0.30860844
Si       2.72461511       2.07938446       1.07533672
Si       2.72461511       0.75637605       3.47118485
Si       2.68132758       2.80799442       3.87407478
Si       2.68132758       0.02776608       0.67244678
Si       2.64953077       0.66151854       1.19792646
Si       2.64953077       2.17424197       3.34859510
Si       2.69281830       1.39012222       2.94570746
Si       2.69281830       1.44563829       1.60081410
Si       8.15561319       0.18057391       4.33894397
Si       8.15561319       2.65518659       0.20757759
Si      -2.78146731       4.07306436       2.06569282
Si      -2.78146731      -1.23730386       2.48082875
20
Lattice="5.357111867572147 -3.868821882209097e-16 -1.2660115580248136e-11 2.409891772360703e-16 2.8404408052693046 1.517285209848581e-05 1.0702367012363077e-11 8.038799156642448e-05 4.52869303905829" Properties=species:S:1:pos:R:3 unique_starting_index=4 config_type=initial n_minim_iter=14 stress="-816.3036042121432 1.4732359307241427e-12 1.115110299596171e-09 1.4732359307241427e-12 -388.63505519568224 0.30605500565546756 1.115110299596171e-09 0.30605500565546756 -346.1773593724668" pbc="T T T"
Si       2.72277163       2.53906037       2.80775018
Si       2.72277163       0.30146082       1.72095803
Si       2.61053247       1.30639605       2.57713174
Si       2.61053247       1.53412515       1.95157647
Si       2.63434023       1.11886087       3.98530892
Si       2.63434023       1.72166032       0.54339930
Si       2.74657940       2.72664554       4.21592936
Si       2.74657940       0.11387565       0.31277885
Si       2.71270537       2.09003408       1.08283195
Si       2.71270537       0.75048711       3.44587626
Si       2.68928985       2.80381581       3.84701464
Si       2.68928985       0.03670539       0.68169357
Si       2.64440650       0.66981543       1.18152931
Si       2.64440650       2.17070577       3.34717890
Si       2.66782202       1.38357941       2.94604728
Si       2.66782202       1.45694178       1.58266093
Si       8.12037289       0.17668176       4.33126221
Si       8.12037289       2.66383943       0.19744600
Si      -2.76326102       4.08409302       2.06693656
Si      -2.76326102      -1.24357182       2.46177165
20
Lattice="5.3782712202827465 -3.884102883977889e-16 -1.2710120108348631e-11 6.845878337263308e-16 2.850326049402964 0.0002025789778099037 1.0533841808075142e-11 0.0010746320655882487 4.45738178199997" Properties=species:S:1:pos:R:3 unique_starting_index=4 config_type=initial n_minim_iter=15 stress="-667.6432918916577 1.0808755556815593e-11 4.4385833287620564e-10 1.0808755556815593e-11 -487.72490175961974 4.130937607227803 4.4385833287620564e-10 4.130937607227803 -481.645325565167" pbc="T T T"
Si       2.74896025       2.51489689       2.79487419
Si       2.74896025       0.33650380       1.66271017
Si       2.60236932       1.31134688       2.54990800
Si       2.60236932       1.54005380       1.90767637
Si       2.62931097       1.08999826       3.89145457
Si       2.62931097       1.76140242       0.56612979
Si       2.77590190       2.73689238       4.13645228
Si       2.77590190       0.11450830       0.32113208
Si       2.69024735       2.06782961       1.10451037
Si       2.69024735       0.78357107       3.35307399
Si       2.68968285       2.82212292       3.76579254
Si       2.68968285       0.02927776       0.69179182
Si       2.68802387       0.64267140       1.12437312
Si       2.68802387       2.20872928       3.33321124
Si       2.68858837       1.39675615       2.92057986
Si       2.68858837       1.45464453       1.53700450
Si       8.14326951       0.18176583       4.27083711
Si       8.14326951       2.66963485       0.18674725
Si      -2.76499829       4.09524524       2.04242439
Si      -2.76499829      -1.24384456       2.41515997
20
Lattice="5.377926441501692 -3.883853978249738e-16 -1.270930531498125e-11 7.195388179055305e-15 2.858563516574718 0.00295736416628114 1.0361579724694367e-11 0.015687774717019532 4.384488853106278" Properties=species:S:1:pos:R:3 unique_starting_index=4 config_type=initial n_minim_iter=16 stress="-780.7959015301374 1.4194139730272655e-10 2.5218768265825635e-10 1.4194139730272655e-10 -561.531199352946 60.22864639733349 2.5218768265825635e-10 60.22864639733349 -676.2485837321045" pbc="T T T"
Si       2.77500121       2.50654538       2.79064971
Si       2.77500121       0.36770592       1.59679651
Si       2.61038049       1.30260558       2.51325189
Si       2.61038049       1.57164571       1.87419433
Si       2.60292523       1.08084378       3.78977060
Si       2.60292523       1.79340751       0.59767561
Si       2.76754596       2.73744366       4.06763673
Si       2.76754596       0.13680763       0.31980948
Si       2.70794972       2.05247458       1.11791397
Si       2.70794972       0.82177671       3.26953225
Si       2.67771902       2.84085615       3.69362018
Si       2.67771902       0.03339514       0.69382604
Si       2.66997672       0.62305205       1.07709034
Si       2.66997672       2.25119924       3.31035588
Si       2.70020742       1.40869532       2.88748518
Si       2.70020742       1.46555597       1.49996103
Si       8.16349022       0.18561919       4.20478893
Si       8.16349022       2.68863210       0.18265729
Si      -2.78556378       4.12447054       2.01662761
Si      -2.78556378      -1.25021925       2.37081861
20
Lattice="5.362938197221222 -3.8730298604409084e-16 -1.2673884567827923e-11 1.0895174499009701e-13 2.8594720345296754 0.046015409865645514 1.0229306663498523e-11 0.24393494370962115 4.328510699813571" Properties=species:S:1:pos:R:3 unique_starting_index=4 config_type=initial n_minim_iter=17 stress="-1045.436521965667 2.2892422613283573e-09 3.3383802299574453e-10 2.2892422613283573e-09 -760.0701201138628 967.7375256219059 3.3383802299574453e-10 967.7375256219059 -906.1581638115692" pbc="T T T"
Si       2.79238696       2.57724007       2.82222008
Si       2.79238696       0.52616690       1.55230603
Si       2.58357877       1.39144223       2.49705751
Si       2.58357877       1.71196475       1.87746860
Si       2.57055124       1.19970183       3.72543736
Si       2.57055124       1.90370514       0.64908875
Si       2.77935942       2.90790591       4.05900663
Si       2.77935942       0.19550107       0.31551948
Si       2.70657513       2.08660949       1.14362309
Si       2.70657513       1.01679749       3.23090302
Si       2.70069296       3.04130849       3.69003803
Si       2.70069296       0.06209849       0.68448808
Si       2.65636307       0.65361334       1.06276595
Si       2.65636307       2.44979364       3.31176016
Si       2.66224524       1.56671149       2.87099334
Si       2.66224524       1.53669549       1.50353277
Si       8.12072032       0.37281022       4.13723921
Si       8.12072032       2.73059676       0.23728690
Si      -2.75778213       4.26048835       2.03750817
Si      -2.75778213      -1.15708137       2.33701793
20
Lattice="5.362938118825168 -3.8756062442384303e-16 -1.2673884996164734e-11 1.9205769326561638e-12 2.5684205151592074 0.8126112675800721 9.18881767287926e-12 4.301816982015638 3.888105565153491" Properties=species:S:1:pos:R:3 unique_starting_index=4 config_type=initial n_minim_iter=18 stress="12601.373707823326 3.613165577786258e-08 -4.819507566840332e-07 3.613165577786258e-08 -178357.78458738973 15252.278053018576 -4.819507566840332e-07 15252.278053018576 -191315.69855457786" pbc="T T T"
Si       2.79238709       4.41717603       2.94029979
Si       2.79238709       2.45306146       1.76041704
Si       2.58357858       3.22722405       2.46526922
Si       2.58357858       3.64301344       2.23544761
Si       2.57055103       4.33320312       3.61880309
Si       2.57055103       2.53703438       1.08191374
Si       2.77935954       6.04718297       4.25962854
Si       2.77935954       0.82305453       0.44108829
Si       2.70657515       3.23878217       1.62473439
Si       2.70657515       3.63145533       3.07598244
Si       2.70069309       5.78973856       3.93599782
Si       2.70069309       1.08049894       0.76471901
Si       2.65636297       2.06262597       1.31609112
Si       2.65636297       4.80761153       3.38462572
Si       2.66224502       3.79429872       2.88686249
Si       2.66224502       3.07593878       1.81385434
Si       8.12072010       3.62970985       3.57244896
Si       8.12072010       3.24052765       1.12826787
Si      -2.75778198       6.32493468       3.16164298
Si      -2.75778198       0.54530281       1.53907385
20
Lattice="5.3629381726851815 4.401726352154775e-15 -1.2617760881523447e-11 2.2073297118451394e-12 2.5031750987078363 0.9780080030123744 4.944737314988185e-12 -0.5695140617588075 2.074641010919057" Properties=species:S:1:pos:R:3 unique_starting_index=4 config_type=initial n_minim_iter=19 stress="32662.11640430176 5.605364109117958e-08 -8.857546603647579e-07 5.605364109117958e-08 -356223.89164486696 16363.130720263958 -8.857546603647579e-07 16363.130720263958 -340827.81213849864" pbc="T T T"
Si       2.79238707       2.64545983       2.39831079
Si       2.79238707      -0.71179879       0.65433822
Si       2.58357857       1.65136744       2.00597058
Si       2.58357857       0.28229360       1.04667844
Si       2.57055110       1.21628385       2.55623065
Si       2.57055110       0.71737719       0.49641836
Si       2.77935960       2.72341226       3.14901762
Si       2.77935960      -0.78975122      -0.09636861
Si       2.70657519       0.79848636       0.81562632
Si       2.70657519       1.13517468       2.23702269
Si       2.70069305       2.92879253       3.01220587
Si       2.70069305      -0.99513149       0.04044314
Si       2.65636298      -0.48812577       0.45421079
Si       2.65636298       2.42178681       2.59843822
Si       2.66224512       1.74912235       2.26121936
Si       2.66224512       0.18453869       0.79142965
Si       8.12072023       0.20993770       2.23660170
Si       8.12072023       1.72372334       0.81604732
Si      -2.75778206       2.76124947       2.08483997
Si      -2.75778206      -0.82758843       0.96780905
20
Lattice="5.362948244373928 -1.2926884411631442e-13 -1.2575508180499046e-11 -1.2639221082432102e-12 2.148727819879162 -0.4714616605395565 3.862876526754458e-12 0.8201178689616387 1.6699367960798297" Properties=species:S:1:pos:R:3 unique_starting_index=4 config_type=initial n_minim_iter=20 stress="511129.8354644369 8.381092225870448e-07 -1.2512978890557617e-05 8.381092225870448e-07 -4514092.993694873 202379.8209084382 -1.2512978890557617e-05 202379.8209084382 -4813469.930674173" pbc="T T T"
Si       2.79237182       2.15159187       0.55939891
Si       2.79237182       0.81725382       0.63907622
Si       2.58359801       1.19864876       0.70734942
Si       2.58359801       1.77019693       0.49112571
Si       2.57057643       1.39281414       1.43773124
Si       2.57057643       1.57603155      -0.23925611
Si       2.77935023       2.64280886       1.22460336
Si       2.77935023       0.32603683      -0.02612822
Si       2.70657414       1.80111805       0.01992920
Si       2.70657414       1.16772764       1.17854594
Si       2.70067393       2.62728686       0.99506698
Si       2.70067393       0.34155883       0.20340816
Si       2.65637410       0.76873825       0.34114872
Si       2.65637410       2.20010744       0.85732641
Si       2.66227431       1.38966962       0.89837884
Si       2.66227431       1.57917607       0.30009630
Si       8.12074821       1.23045890       1.60921388
Si       8.12074821       1.73838679      -0.41073875
Si      -2.75779997       3.24879952       0.24141984
Si      -2.75779997      -0.27995383       0.95705530
20
Lattice="5.3629244383193795 -8.78696498665883e-14 -1.2554663526155191e-11 -1.405083837858124e-12 2.1320983947817176 -0.5368531002075377 4.114976699153903e-12 0.4883330489765313 1.755200163877641" Properties=species:S:1:pos:R:3 unique_starting_index=4 config_type=initial n_minim_iter=21 stress="488334.01038614206 4.1759512664616155e-07 -1.1471024723955531e-05 4.1759512664616155e-07 -4605266.169464022 41768.30785213775 -1.1471024723955531e-05 41768.30785213775 -4367095.130770566" pbc="T T T"
Si       2.79240494       1.23696392       0.75505478
Si       2.79240494       1.38346753       0.46329228
Si       2.58355389       0.29013113       0.88567042
Si       2.58355389       2.33030032       0.33267664
Si       2.57051949       0.34881258       1.66289405
Si       2.57051949       2.27161886      -0.44454698
Si       2.77937055       1.59013171       1.45812803
Si       2.77937055       1.03029973      -0.23978096
Si       2.70657422       2.44118106      -0.17108552
Si       2.70657422       0.17925038       1.38943259
Si       2.70071309       1.61509771       1.21316023
Si       2.70071309       1.00533373       0.00518683
Si       2.65635022       1.38862453       0.14583729
Si       2.65635022       1.23180691       1.07250978
Si       2.66221135       0.43921437       1.08681337
Si       2.66221135       2.18121707       0.13153369
Si       8.12068280       0.17751466       1.89036563
Si       8.12068280       2.44291679      -0.67201857
Si      -2.75775836       3.78272263       0.04350980
Si      -2.75775836      -1.16229118       1.17483727
