20
Lattice="4.119275897858674 -2.930089129798372e-16 1.2051430023098996e-11 3.8228284402896247e-16 5.37433653361419 1.0683213837462744e-14 -6.324925464446904e-11 -4.297488992120261e-14 21.61910492905053" Properties=species:S:1:pos:R:3 unique_starting_index=4 config_type=initial n_minim_iter=1 energy=-3249.465183328273 free_energy=-3249.465183328273 pbc="T T T"
Si       2.48756436       2.96165749      13.56673654
Si       2.48756436       2.41267904       8.05236839
Si       1.72016661       1.95713043      11.71819413
Si       1.72016661       3.41720611       9.90091080
Si       1.63171154       0.27448923      18.86192085
Si       1.63171154       5.09984731       2.75718408
Si       2.39910928       4.64429869      20.71046327
Si       2.39910928       0.73003784       0.90864166
Si       2.09551373       4.36247813       4.56304816
Si       2.09551373       1.01185840      17.05605676
Si       2.03178655       4.39377888      17.32727169
Si       2.03178655       0.98055766       4.29183324
Si       2.02376217       1.67530987       6.24650430
Si       2.02376217       3.69902667      15.37260063
Si       2.08748935       1.70661061      15.10138570
Si       2.08748935       3.66772592       6.51771923
Si       3.99711597       2.97721871      20.43074906
Si       3.99711597       2.39711783       1.18835587
Si       0.12215993       5.08428609       9.62119659
Si       0.12215993       0.29005044      11.99790834
20
Lattice="4.116927816628961 -2.928418912167363e-16 1.20445604330715e-11 3.8206907414192866e-16 5.371331242315053 1.0630046436223017e-14 -6.305584302536998e-11 -4.3032859197849127e-14 21.552995279042722" Properties=species:S:1:pos:R:3 unique_starting_index=4 config_type=initial n_minim_iter=2 stress="-0.0024370291553392036 -2.9537018947963004e-16 1.441799031576425e-14 -2.9537018947963004e-16 -0.006252326860998776 -5.984274580230043e-16 1.441799031576425e-14 -5.984274580230043e-16 -0.00748267315767248" pbc="T T T"
Si       2.48619039       2.96010330      13.52566376
Si       2.48619039       2.41122794       8.02733152
Si       1.72000752       1.95579864      11.68236407
Si       1.72000752       3.41553260       9.87063121
Si       1.63073743       0.27443768      18.80382916
Si       1.63073743       5.09689357       2.74916612
Si       2.39692030       4.64146426      20.64712885
Si       2.39692030       0.72986698       0.90586643
Si       2.09399365       4.36025560       4.54909075
Si       2.09399365       1.01107564      17.00390453
Si       2.03092025       4.39171028      17.27425370
Si       2.03092025       0.97962096       4.27874158
Si       2.02293416       1.67458998       6.22740689
Si       2.02293416       3.69674126      15.32558839
Si       2.08600757       1.70604466      15.05523922
Si       2.08600757       3.66528658       6.49775606
Si       3.99555301       2.97560535      20.36845188
Si       3.99555301       2.39572589       1.18454340
Si       0.12137480       5.08139151       9.59195424
Si       0.12137480       0.28993973      11.96104104
20
Lattice="4.122405444879619 -2.9323152132344024e-16 1.2060585883949795e-11 3.854835862793104e-16 5.419334278886718 1.0987577670607183e-14 -6.281144861301931e-11 -4.183002240575028e-14 21.46945929945872" Properties=species:S:1:pos:R:3 unique_starting_index=4 config_type=initial n_minim_iter=3 stress="0.005438036162252356 -1.1527146752189573e-16 3.47721705562435e-14 -1.1527146752189573e-16 0.01629320668667144 3.4682707861068375e-16 3.47721705562435e-14 3.4682707861068375e-16 -0.006413890345455733" pbc="T T T"
Si       2.49054563       2.98723089      13.47516760
Si       2.49054563       2.43210339       7.99429170
Si       1.73119070       1.97055738      11.63716859
Si       1.73119070       3.44877690       9.83229071
Si       1.63185981       0.27756375      18.72902135
Si       1.63185981       5.14177053       2.74043795
Si       2.39121474       4.68022452      20.56702036
Si       2.39121474       0.73910976       0.90243894
Si       2.09380339       4.40035641       4.53338219
Si       2.09380339       1.01897787      16.93607711
Si       2.03686650       4.43445166      17.20691195
Si       2.03686650       0.98488262       4.26254735
Si       2.02860205       1.69068927       6.20134746
Si       2.02860205       3.72864501      15.26811184
Si       2.08553895       1.72478452      14.99727700
Si       2.08553895       3.69454976       6.47218230
Si       4.00866298       3.00278789      20.29148286
Si       4.00866298       2.41654638       1.17797644
Si       0.11374246       5.12621352       9.55675321
Si       0.11374246       0.29312076      11.91270609
20
Lattice="4.066094848007308 -2.8922608269708737e-16 1.189584255658044e-11 3.9036003943730585e-16 5.487890063548595 1.1107233631487336e-14 -6.327026047925573e-11 -4.220410966595925e-14 21.626284892655267" Properties=species:S:1:pos:R:3 unique_starting_index=4 config_type=initial n_minim_iter=4 stress="0.006303497665774734 -4.472410545007268e-16 -9.714551932656413e-15 -4.472410545007268e-16 0.01679325998796661 1.2064465482519607e-15 -9.714551932656413e-15 1.2064465482519607e-15 0.009729208803918983" pbc="T T T"
Si       2.47130079       3.03182010      13.59275645
Si       2.47130079       2.45606997       8.03352845
Si       1.82036700       1.95819277      11.72354151
Si       1.82036700       3.52969729       9.90274338
Si       1.59479406       0.28787506      18.84667089
Si       1.59479406       5.20001500       2.77961400
Si       2.24572785       4.70213780      20.71588583
Si       2.24572785       0.78575226       0.91039906
Si       2.02855003       4.47541781       4.59517591
Si       2.02855003       1.01247226      17.03110898
Si       2.05089925       4.54358770      17.32702106
Si       2.05089925       0.94430236       4.29926383
Si       2.03754482       1.73147277       6.21796654
Si       2.03754482       3.75641729      15.40831835
Si       2.01519559       1.79964267      15.11240628
Si       2.01519559       3.68824739       6.51387861
Si       4.05261308       3.05027108      20.46528286
Si       4.05261308       2.43761899       1.16100203
Si       0.01348177       5.18156402       9.65214041
Si       0.01348177       0.30632605      11.97414448
20
Lattice="4.0080196413600655 -2.8509512531715155e-16 1.172593665410129e-11 3.908797630856583e-16 5.495196616370209 1.1198331087068337e-14 -6.316568513662401e-11 -4.182233506741185e-14 21.590540197827565" Properties=species:S:1:pos:R:3 unique_starting_index=4 config_type=initial n_minim_iter=5 stress="-0.014850089715097966 -1.4460633392746843e-16 -7.026099283196659e-14 -1.4460633392746843e-16 0.010533498965346805 2.6090426343321247e-16 -7.026099283196659e-14 2.6090426343321247e-16 0.00925560242179129" pbc="T T T"
Si       2.44933151       3.04607932      13.58153596
Si       2.44933151       2.44911730       8.00900424
Si       1.90345416       1.91710724      11.70620861
Si       1.90345416       3.57808938       9.88433158
Si       1.55868814       0.29848101      18.80427434
Si       1.55868814       5.19671561       2.78626586
Si       2.10456548       4.66470555      20.67960168
Si       2.10456548       0.83049107       0.91093851
Si       1.96536052       4.47752066       4.62622540
Si       1.96536052       1.01767596      16.96431480
Si       2.06020472       4.57738955      17.28827291
Si       2.06020472       0.91780706       4.30226729
Si       2.04265912       1.72992235       6.16904470
Si       2.04265912       3.76527427      15.42149550
Si       1.94781492       1.82979124      15.09753739
Si       1.94781492       3.66540537       6.49300281
Si       4.08808855       3.07591993      20.45775686
Si       4.08808855       2.41927669       1.13278334
Si      -0.08006891       5.16687500       9.66248676
Si      -0.08006891       0.32832162      11.92805344
20
Lattice="4.069612494897363 -2.8947629703386327e-16 1.1906133849611699e-11 3.8816774520225843e-16 5.457069619498213 1.1169881362667377e-14 -6.305459096562042e-11 -4.1562544580382296e-14 21.552567314930645" Properties=species:S:1:pos:R:3 unique_starting_index=4 config_type=initial n_minim_iter=6 stress="0.008112786462612407 -1.593222301584217e-16 -4.8490786279554285e-15 -1.593222301584217e-16 0.004812357182800482 1.1481638424519562e-17 -4.8490786279554285e-15 1.1481638424519562e-17 0.009854514996688307" pbc="T T T"
Si       2.49083150       3.03015940      13.56181523
Si       2.49083150       2.42691022       7.99075209
Si       1.96920980       1.88826217      11.68622032
Si       1.96920980       3.56880744       9.86634699
Si       1.57878100       0.30162459      18.76703575
Si       1.57878100       5.15544503       2.78553157
Si       2.10040269       4.61679698      20.64263065
Si       2.10040270       0.84027263       0.90993666
Si       1.98361853       4.44469232       4.62998051
Si       1.98361853       1.01237730      16.92258681
Si       2.10440418       4.55312868      17.25418074
Si       2.10440418       0.90394094       4.29838657
Si       2.08599396       1.71615751       6.14630315
Si       2.08599396       3.74091211      15.40626416
Si       1.96520832       1.82459387      15.07467023
Si       1.96520832       3.63247575       6.47789708
Si       4.18182903       3.06396316      20.43074159
Si       4.18182903       2.39310646       1.12182572
Si      -0.11221653       5.12164127       9.65445794
Si      -0.11221653       0.33542835      11.89810938
20
Lattice="4.025750460862337 -2.863563392447935e-16 1.177781026873218e-11 3.842502127976065e-16 5.40199485517518 1.1053683787676156e-14 -6.314405168933635e-11 -4.166466205636113e-14 21.583145711212396" Properties=species:S:1:pos:R:3 unique_starting_index=4 config_type=initial n_minim_iter=7 stress="-0.022185043575044795 -2.383084952135028e-17 -3.650300723816616e-14 -2.383084952135028e-17 -0.017189031295726357 2.1128443012353487e-16 -3.650300723816616e-14 2.1128443012353487e-16 -0.009779301259925943" pbc="T T T"
Si       2.46410109       3.03587489      13.58260862
Si       2.46410109       2.36611996       8.00053709
Si       1.97620363       1.83652956      11.70350793
Si       1.97620363       3.56546530       9.87963778
Si       1.56164937       0.33487746      18.79210995
Si       1.56164937       5.06711739       2.79103577
Si       2.04954683       4.53752698      20.67121064
Si       2.04954683       0.86446787       0.91193507
Si       1.94587580       4.38460395       4.63555568
Si       1.94587580       1.01739091      16.94759004
Si       2.08654307       4.48251735      17.27510274
Si       2.08654307       0.91947751       4.30804297
Si       2.07987466       1.68360652       6.15601718
Si       2.07987466       3.71838834      15.42712853
Si       1.93920739       1.78151992      15.09961582
Si       1.93920739       3.62047493       6.48352989
Si       4.15403644       3.07724370      20.46999052
Si       4.15403644       2.32475115       1.11315519
Si      -0.12828598       5.02574858       9.67841767
Si      -0.12828598       0.37624628      11.90472804
20
Lattice="4.045593213373859 -2.8776777744164455e-16 1.183586259377372e-11 3.819061263612513e-16 5.369040435254652 1.097134485580489e-14 -6.310202196713857e-11 -4.171053982916498e-14 21.56877961347037" Properties=species:S:1:pos:R:3 unique_starting_index=4 config_type=initial n_minim_iter=8 stress="-0.015930524595424506 9.304300311113664e-17 -7.610094160225937e-15 9.304300311113664e-17 -0.017608802219455773 5.3971458665549495e-17 -7.610094160225937e-15 5.3971458665549495e-17 -0.013364422383353393" pbc="T T T"
Si       2.47045608       3.03125270      13.56403944
Si       2.47045608       2.33778773       8.00474017
Si       1.95033358       1.82794999      11.69580121
Si       1.95033358       3.54109044       9.87297840
Si       1.57513713       0.34673249      18.78912998
Si       1.57513713       5.02230795       2.77964964
Si       2.09525963       4.51247021      20.65736821
Si       2.09525963       0.85657023       0.91141141
Si       1.96244506       4.34939077       4.61720038
Si       1.96244506       1.01964966      16.95157923
Si       2.08146120       4.43038204      17.27106723
Si       2.08146120       0.93865839       4.29771239
Si       2.08314816       1.66487056       6.16718943
Si       2.08314816       3.70416988      15.40159019
Si       1.96413201       1.74586182      15.08210219
Si       1.96413201       3.62317861       6.48667742
Si       4.13889189       3.07426173      20.45048213
Si       4.13889189       2.29477871       1.11829749
Si      -0.09329868       4.97929892       9.66609232
Si      -0.09329868       0.38974151      11.90268729
20
Lattice="4.0772476802666215 -2.9001939670034234e-16 1.1928471489641785e-11 3.800923977982369e-16 5.3435420697978415 1.0888635289272567e-14 -6.288619469589565e-11 -4.169407324597688e-14 21.49500811292418" Properties=species:S:1:pos:R:3 unique_starting_index=4 config_type=initial n_minim_iter=9 stress="-0.0051559188873233726 2.4652298998635716e-16 1.0410447466542519e-14 2.4652298998635716e-16 0.0034198009533791553 3.1222096676238236e-16 1.0410447466542519e-14 3.1222096676238236e-16 -0.008706465898973028" pbc="T T T"
Si       2.48708567       3.04526327      13.50134614
Si       2.48708567       2.29827880       7.99366197
Si       1.95745125       1.80560753      11.65724749
Si       1.95745125       3.53793454       9.83776062
Si       1.59016201       0.37349224      18.74116603
Si       1.59016201       4.97004983       2.75384209
Si       2.11979643       4.47737856      20.58526468
Si       2.11979643       0.86616351       0.90974344
Si       1.97377551       4.31816118       4.59442164
Si       1.97377551       1.02538088      16.90058648
Si       2.08975772       4.38711773      17.22393229
Si       2.08975772       0.95642434       4.27107582
Si       2.10347217       1.64639015       6.15308242
Si       2.10347217       3.69715192      15.34192569
Si       1.98748996       1.71534669      15.01857988
Si       1.98748996       3.62819538       6.47642823
Si       4.15520646       3.09584375      20.38399790
Si       4.15520646       2.24769832       1.11101022
Si      -0.07795878       4.91946935       9.63649384
Si      -0.07795878       0.42407272      11.85851427
20
Lattice="4.1215333802091525 -2.9316949034094843e-16 1.2058034555363804e-11 3.7822706007419446e-16 5.317318155174432 1.0759390009197362e-14 -6.267960551442976e-11 -4.1865082076124766e-14 21.424394265908536" Properties=species:S:1:pos:R:3 unique_starting_index=4 config_type=initial n_minim_iter=10 stress="0.011281254572039592 3.690190355651113e-16 3.6996308586514734e-14 3.690190355651113e-16 0.004385766539853114 4.0126571300215867e-16 3.6996308586514734e-14 4.0126571300215867e-16 -0.0013702712328714063" pbc="T T T"
Si       2.51622573       3.06288428      13.43473120
Si       2.51622573       2.25443387       7.98966307
Si       1.99302627       1.77962841      11.62059193
Si       1.99302627       3.53768975       9.80380234
Si       1.60530765       0.40422520      18.70186020
Si       1.60530765       4.91309295       2.72253407
Si       2.12850711       4.43828749      20.51599947
Si       2.12850711       0.87903067       0.90839480
Si       1.98603226       4.29763991       4.57845591
Si       1.98603226       1.01967824      16.84593835
Si       2.11110096       4.36034035      17.17866220
Si       2.11110096       0.95697780       4.24573207
Si       2.13550112       1.63898084       6.13374122
Si       2.13550112       3.67833732      15.29065304
Si       2.01043242       1.70168128      14.95792920
Si       2.01043242       3.61563688       6.46646507
Si       4.20239248       3.11869622      20.32775814
Si       4.20239248       2.19862193       1.09663613
Si      -0.08085910       4.85728101       9.61556100
Si      -0.08085910       0.46003715      11.80883326
20
Lattice="4.142691727500775 -2.946745083403896e-16 1.2119935808912271e-11 3.765824491415791e-16 5.294197335862238 1.0945537662077246e-14 -6.206324567175293e-11 -4.050667739072117e-14 21.213717504770635" Properties=species:S:1:pos:R:3 unique_starting_index=4 config_type=initial n_minim_iter=11 stress="0.014831775965489636 -1.865353881759992e-16 3.037522425593947e-14 -1.865353881759992e-16 0.004924734595485988 1.4823206317480642e-15 3.037522425593947e-14 1.4823206317480642e-15 0.0049786132326684746" pbc="T T T"
Si       2.53535591       3.10858768      13.25095785
Si       2.53535591       2.18560966       7.96275965
Si       2.01596531       1.75206011      11.50748650
Si       2.01596531       3.54213722       9.70623101
Si       1.60733582       0.46148901      18.56961841
Si       1.60733582       4.83270833       2.64409910
Si       2.12672642       4.39915878      20.31308976
Si       2.12672642       0.89503856       0.90062775
Si       1.98537647       4.28174281       4.53421149
Si       1.98537647       1.01245453      16.67950601
Si       2.11426805       4.33246253      17.02988649
Si       2.11426805       0.96173481       4.18383102
Si       2.15731526       1.63464414       6.07264726
Si       2.15731526       3.65955319      15.14107025
Si       2.02842368       1.68536386      14.79068977
Si       2.02842368       3.60883347       6.42302773
Si       4.21475732       3.16873807      20.14817070
Si       4.21475732       2.12545927       1.06554681
Si      -0.07206559       4.77255793       9.54131195
Si      -0.07206559       0.52163940      11.67240556
20
Lattice="4.0893632949906555 -2.9088119455909187e-16 1.1963917156951777e-11 3.8102015336104444e-16 5.356584953564405 1.1240320023031582e-14 -6.179375387203996e-11 -3.960878705587334e-14 21.12160303593993" Properties=species:S:1:pos:R:3 unique_starting_index=4 config_type=initial n_minim_iter=12 stress="-0.0003753157828387541 -2.7285002562700093e-16 -6.309957917997587e-14 -2.7285002562700093e-16 -0.01309767332920328 3.955747966766216e-16 -6.309957917997587e-14 3.955747966766216e-16 0.02163265701568234" pbc="T T T"
Si       2.51515450       3.19836973      13.15322696
Si       2.51515450       2.15821523       7.96837607
Si       2.00301215       1.77619680      11.45299369
Si       2.00301215       3.58038816       9.66860934
Si       1.57420879       0.52007725      18.52917759
Si       1.57420879       4.83650770       2.59242545
Si       2.08635115       4.45448927      20.22941086
Si       2.08635115       0.90209568       0.89219217
Si       1.95247399       4.35566140       4.50845714
Si       1.95247399       1.00092355      16.61314590
Si       2.08266234       4.40181465      16.97238482
Si       2.08266234       0.95477030       4.14921821
Si       2.13688931       1.67736893       6.05234438
Si       2.13688931       3.67921603      15.06925866
Si       2.00670095       1.72352218      14.71001973
Si       2.00670095       3.63306278       6.41158331
Si       4.15417247       3.23869200      20.08575588
Si       4.15417247       2.11789296       1.03584716
Si      -0.06480917       4.79618543       9.52495436
Si      -0.06480917       0.56039952      11.59664868
20
Lattice="4.058820760872638 -2.887086683776886e-16 1.1874561352247664e-11 3.857218642144363e-16 5.42268411752325 1.1566245435797769e-14 -6.125058487723594e-11 -3.841981376302016e-14 20.935943496410438" Properties=species:S:1:pos:R:3 unique_starting_index=4 config_type=initial n_minim_iter=13 stress="-0.009806355824992011 -8.235528097890341e-17 1.2383620092692434e-14 -8.235528097890341e-17 -0.008540281533346353 1.0119354327632673e-16 1.2383620092692434e-14 1.0119354327632673e-16 -0.014029065731210254" pbc="T T T"
Si       2.50479736       3.26838194      13.02084554
Si       2.50479736       2.15430217       7.91509796
Si       1.98436156       1.81093111      11.34701555
Si       1.98436156       3.61175301       9.58892795
Si       1.55402340       0.55703989      18.38306970
Si       1.55402340       4.86564423       2.55287379
Si       2.07445920       4.52227317      20.05689970
Si       2.07445920       0.90041095       0.87904380
Si       1.93653196       4.42060139       4.46219324
Si       1.93653196       1.00208273      16.47375026
Si       2.06464299       4.46185659      16.82542841
Si       2.06464299       0.96082753       4.11051508
Si       2.12228880       1.70925933       6.00577851
Si       2.12228880       3.71342479      14.93016498
Si       1.99417777       1.75051453      14.57848683
Si       1.99417777       3.67216959       6.35745666
Si       4.11078133       3.28632125      19.92154263
Si       4.11078133       2.13636287       1.01440086
Si      -0.05196057       4.84770492       9.45357089
Si      -0.05196057       0.57497919      11.48237261
20
Lattice="4.062961736262373 -2.8900322080027264e-16 1.1886676266706938e-11 3.8570391813789627e-16 5.422431821996664 1.2059093553181621e-14 -6.108017357583431e-11 -3.631104863986234e-14 20.87769554033872" Properties=species:S:1:pos:R:3 unique_starting_index=4 config_type=initial n_minim_iter=14 stress="-0.006629074137529593 -5.690094915763236e-16 5.709887599705867e-15 -5.690094915763236e-16 0.005565607078902342 2.8050095133818154e-15 5.709887599705867e-15 2.8050095133818154e-15 -0.007255638053203377" pbc="T T T"
Si       2.51354524       3.29481288      12.97094834
Si       2.51354524       2.12761895       7.90674720
Si       1.98172606       1.82265575      11.31020166
Si       1.98172606       3.59977607       9.56749388
Si       1.54941650       0.58359697      18.34559497
Si       1.54941650       4.83883486       2.53210057
Si       2.08123568       4.53387166      20.00634165
Si       2.08123568       0.88856016       0.87135389
Si       1.93661897       4.42004414       4.45096202
Si       1.93661897       1.00238768      16.42673352
Si       2.06478590       4.45501207      16.77823566
Si       2.06478590       0.96741975       4.09945988
Si       2.12634277       1.70882823       5.98788575
Si       2.12634277       3.71360359      14.88980979
Si       1.99817583       1.74379616      14.53830765
Si       1.99817583       3.67863566       6.33938789
Si       4.10287949       3.29314578      19.87412472
Si       4.10287949       2.12928604       1.00357082
Si      -0.03991775       4.84050195       9.43527695
Si      -0.03991775       0.58192987      11.44241859
20
Lattice="4.073554680498049 -2.8975670931465367e-16 1.1917667180974453e-11 3.8550008961035664e-16 5.419566291637529 1.2385376428017776e-14 -6.106641832329671e-11 -3.496784943670681e-14 20.8729938841752" Properties=species:S:1:pos:R:3 unique_starting_index=4 config_type=initial n_minim_iter=15 stress="0.002380676831256759 -7.210374799217109e-16 -6.475724883370053e-15 -7.210374799217109e-16 0.006028164020162573 3.596092364985868e-15 -6.475724883370053e-15 3.596092364985868e-15 0.006115214865485349" pbc="T T T"
Si       2.53199079       3.33044232      12.95928269
Si       2.53199079       2.08912397       7.91371119
Si       1.99555585       1.84186237      11.29817369
Si       1.99555585       3.57770392       9.57482019
Si       1.54156389       0.62065918      18.35020814
Si       1.54156389       4.79890712       2.52278575
Si       2.07799883       4.55164552      20.01131713
Si       2.07799883       0.86792078       0.86167675
Si       1.93420526       4.42044504       4.45400601
Si       1.93420526       0.99912125      16.41898787
Si       2.07419987       4.45198260      16.76913781
Si       2.07419987       0.96758369       4.10385607
Si       2.13934942       1.71066189       5.98249093
Si       2.13934942       3.70890440      14.89050295
Si       1.99935481       1.74219946      14.54035301
Si       1.99935481       3.67736684       6.33264087
Si       4.11053069       3.29238546      19.88278303
Si       4.11053069       2.12718083       0.99021085
Si      -0.03697601       4.83696398       9.44628609
Si      -0.03697601       0.58260231      11.42670780
20
Lattice="4.07597199135464 -2.8992865546245083e-16 1.1924739310483294e-11 3.838994974351942e-16 5.397064311378031 1.2290930148436226e-14 -6.1401583464397e-11 -3.545049330798929e-14 20.98755603031807" Properties=species:S:1:pos:R:3 unique_starting_index=4 config_type=initial n_minim_iter=16 stress="0.005905592868613185 -8.759393586463068e-16 1.874737470959099e-14 -8.759393586463068e-16 0.012185559009409012 3.986980423830553e-15 1.874737470959099e-14 3.986980423830553e-15 0.0012888671188337909" pbc="T T T"
Si       2.54310232       3.34689377      13.03903401
Si       2.54310232       2.05017055       7.94852202
Si       2.00886652       1.85345124      11.35130788
Si       2.00886652       3.54361307       9.63624815
Si       1.53286967       0.64836161      18.44230004
Si       1.53286967       4.74870270       2.54525599
Si       2.06710547       4.55198339      20.13002616
Si       2.06710547       0.84508092       0.85752987
Si       1.92493636       4.39654655       4.47800113
Si       1.92493636       1.00051776      16.50955490
Si       2.08214631       4.42773387      16.85435710
Si       2.08214631       0.96933044       4.13319893
Si       2.15103564       1.69801439       6.01577688
Si       2.15103564       3.69904992      14.97177915
Si       1.99382568       1.72920172      14.62697694
Si       1.99382568       3.66786260       6.36057909
Si       4.11523896       3.27508241      19.99935981
Si       4.11523896       2.12198190       0.98819622
Si      -0.03926697       4.82051405       9.50558180
Si      -0.03926697       0.57655026      11.48197423
20
Lattice="4.067415660397625 -2.893200336322559e-16 1.1899706749824626e-11 3.8284898974559737e-16 5.3822957128288245 1.2565749195618711e-14 -6.166011511542369e-11 -3.443943613937402e-14 21.075924232005892" Properties=species:S:1:pos:R:3 unique_starting_index=4 config_type=initial n_minim_iter=17 stress="0.003328646328896807 -7.7588949356021995e-16 1.125033750082434e-15 -7.7588949356021995e-16 0.0012165713107644175 3.561102980289805e-15 1.125033750082434e-15 3.561102980289805e-15 0.004264884609791328" pbc="T T T"
Si       2.54187271       3.34652002      13.09954965
Si       2.54187271       2.03577569       7.97637458
Si       2.00717151       1.86126438      11.39722310
Si       2.00717151       3.52103133       9.67870113
Si       1.52554295       0.65537216      18.51433670
Si       1.52554295       4.72692355       2.56158754
Si       2.06024415       4.55241224      20.21666325
Si       2.06024415       0.82988347       0.85926098
Si       1.91718221       4.38298754       4.49616684
Si       1.91718221       0.99930817      16.57975739
Si       2.07882857       4.41686454      16.92405608
Si       2.07882857       0.96543117       4.15186815
Si       2.15023345       1.69183969       6.04179528
Si       2.15023345       3.69045602      15.03412895
Si       1.98858709       1.72571668      14.68983027
Si       1.98858709       3.65657903       6.38609396
Si       4.10514704       3.26136238      20.08258343
Si       4.10514704       2.12093334       0.99334080
Si      -0.03773138       4.81208119       9.54462131
Si      -0.03773138       0.57021452      11.53130292
20
Lattice="4.049272189729285 -2.8802946734091556e-16 1.1846625875283227e-11 3.817063903788054e-16 5.366232440270786 1.2716427518040762e-14 -6.184609012326023e-11 -3.387245539696224e-14 21.139491988356532" Properties=species:S:1:pos:R:3 unique_starting_index=4 config_type=initial n_minim_iter=18 stress="-0.006246148772765833 -1.0329477312060458e-15 -8.202553642071994e-15 -1.0329477312060458e-15 -0.006208671152071653 5.428610123838173e-15 -8.202553642071994e-15 5.428610123838173e-15 -0.00153908396866578" pbc="T T T"
Si       2.53717860       3.35336092      13.14434012
Si       2.53717860       2.01287152       7.99515186
Si       2.00848513       1.86950206      11.43648018
Si       2.00848513       3.49673038       9.70301181
Si       1.51209359       0.67024470      18.56489786
Si       1.51209359       4.69598774       2.57459413
Si       2.04078706       4.55261828      20.27275780
Si       2.04078706       0.81361416       0.86673419
Si       1.89759731       4.36365990       4.51025886
Si       1.89759731       1.00257254      16.62923312
Si       2.06977734       4.40746228      16.98129753
Si       2.06977734       0.95877016       4.15819446
Si       2.15167488       1.68054368       6.05948713
Si       2.15167488       3.68568876      15.08000486
Si       1.97949485       1.72434606      14.72794045
Si       1.97949485       3.64188638       6.41155154
Si       4.08683576       3.25770319      20.13631614
Si       4.08683576       2.10852925       1.00317584
Si      -0.03756357       4.79164547       9.56657015
Si      -0.03756357       0.57458697      11.57292184
20
Lattice="4.0694980391520685 -2.8946815566725557e-16 1.1905798995758847e-11 3.8061287912447746e-16 5.350859274655939 1.4054750968205315e-14 -6.151433334751504e-11 -2.811489483153565e-14 21.02609484895817" Properties=species:S:1:pos:R:3 unique_starting_index=4 config_type=initial n_minim_iter=19 stress="-0.000998741980175009 -5.113127106636663e-16 1.3143243366360565e-14 -5.113127106636663e-16 -0.004640791356074145 5.369132036049511e-15 1.3143243366360565e-14 5.369132036049511e-15 -0.0031296870023627575" pbc="T T T"
Si       2.56386097       3.37163840      13.07018041
Si       2.56386097       1.97922087       7.95591443
Si       2.02645501       1.89219791      11.39367097
Si       2.02645501       3.45866137       9.63242388
Si       1.50563707       0.69620876      18.46896186
Si       1.50563707       4.65465051       2.55713299
Si       2.04304303       4.56762755      20.14547130
Si       2.04304303       0.78323173       0.88062355
Si       1.88907598       4.33791694       4.49773455
Si       1.88907598       1.01294234      16.52836030
Si       2.07463358       4.40779678      16.90575697
Si       2.07463358       0.94306249       4.12033788
Si       2.18042206       1.66248730       6.01531287
Si       2.18042206       3.68837198      15.01078197
Si       1.99486446       1.73236715      14.63338531
Si       1.99486446       3.61849213       6.39270954
Si       4.09555539       3.25776181      20.00930723
Si       4.09555539       2.09309747       1.01678762
Si      -0.02605735       4.76852711       9.49625981
Si      -0.02605735       0.58233217      11.52983504
20
Lattice="4.072328057865069 -2.8966945820867076e-16 1.1914078551032505e-11 3.808634548513145e-16 5.354382002185241 1.502149166641064e-14 -6.152650272417749e-11 -2.4255799985094746e-14 21.030254439967827" Properties=species:S:1:pos:R:3 unique_starting_index=4 config_type=initial n_minim_iter=20 stress="0.00039911813891839264 -1.9586738066053616e-16 -1.2181788946767462e-14 -1.9586738066053616e-16 0.008020470737417542 5.0437061072502525e-15 -1.2181788946767462e-14 5.0437061072502525e-15 0.006887298620589339" pbc="T T T"
Si       2.57903528       3.41360732      13.07261618
Si       2.57903528       1.94077468       7.95763826
Si       2.04438917       1.90055808      11.41006305
Si       2.04438917       3.45382392       9.62019139
Si       1.49329277       0.73641632      18.47276548
Si       1.49329277       4.61796568       2.55748896
Si       2.02793889       4.57774908      20.13531861
Si       2.02793889       0.77663292       0.89493583
Si       1.87046657       4.33081393       4.50591690
Si       1.87046657       1.02356807      16.52433754
Si       2.07353244       4.42318948      16.92040450
Si       2.07353244       0.93119252       4.10984994
Si       2.20186149       1.65362293       6.00921032
Si       2.20186149       3.70075907      15.02104412
Si       1.99879561       1.74599848      14.62497716
Si       1.99879561       3.60838352       6.40527728
Si       4.09557921       3.27384840      20.01132168
Si       4.09557921       2.08053360       1.01893276
Si      -0.02325115       4.75772461       9.49619446
Si      -0.02325115       0.59665740      11.53405998
20
Lattice="4.089001503393767 -2.908554598913871e-16 1.1962858692740785e-11 3.800236036683714e-16 5.342574925409573 1.5745922063366718e-14 -6.170302097406547e-11 -2.145299896329488e-14 21.090589800244718" Properties=species:S:1:pos:R:3 unique_starting_index=4 config_type=initial n_minim_iter=21 stress="0.00578913694542668 -1.7210911131229774e-16 3.767066035403388e-14 -1.7210911131229774e-16 0.007101709446488152 4.209052715222346e-15 3.767066035403388e-14 4.209052715222346e-15 -0.004965183918459171" pbc="T T T"
Si       2.60333270       3.42332373      13.13593417
Si       2.60333270       1.91925119       7.95465563
Si       2.06304857       1.90568513      11.46918219
Si       2.06304857       3.43688979       9.62140761
Si       1.48566881       0.75203627      18.49995053
Si       1.48566881       4.59053865       2.59063927
Si       2.02595294       4.57697260      20.16670251
Si       2.02595294       0.76560233       0.92388729
Si       1.85975487       4.29919764       4.53360544
Si       1.85975487       1.04337729      16.55698436
Si       2.07664867       4.43835985      16.97143289
Si       2.07664867       0.90421507       4.11915691
Si       2.22924663       1.62791017       6.01168946
Si       2.22924663       3.71466475      15.07890034
Si       2.01235284       1.76707239      14.66445181
Si       2.01235284       3.57550254       6.42613799
Si       4.10922151       3.24828530      20.05532096
Si       4.10922151       2.09428963       1.03526884
Si      -0.02022001       4.76557709       9.51002606
Si      -0.02022001       0.57699784      11.58056374
