4
Lattice="3.8748375433051305 -1.062519967446186e-16 1.1955150108183478e-17 -1.062519967446186e-16 3.8748375433051305 -7.734838082041598e-17 1.1955150108183478e-17 -7.734838082041598e-17 3.874837543305132" Properties=species:S:1:pos:R:3 n_minim_iter=2 pbc="T T T"
Si      -0.00000000      -0.00000000      -0.00000000
Si       1.93741877       1.93741877      -0.00000000
Si       1.93741877      -0.00000000       1.93741877
Si      -0.00000000       1.93741877       1.93741877
