1
Lattice="2.682327809767271 2.0433121184840978e-16 -1.1703758056811795e-49 1.3411639048836352 2.322964024535931 -6.315783514614657e-50 1.2744483089923183e-49 -2.720777496370759e-49 2.5034662859283907" Properties=species:S:1:pos:R:3 cutoff=-1.0 nneightol=1.2 n_minim_iter=3 pbc="T T T"
Si       0.00000000       0.00000000       0.00000000
