2
Lattice="4.849871900693802 3.8773068281553196e-19 1.6461666703554173e-16 3.8773068281563273e-19 4.849871900693802 -2.547216271077905e-16 2.424935950346901 2.424935950346901 1.3375239324373542" Properties=species:S:1:pos:R:3 cutoff=-1.0 nneightol=1.2 n_minim_iter=2 pbc="T T T"
Si      -0.00000000      -1.21246797      -0.33438098
Si      -0.00000000       1.21246798       0.33438098
