2
Lattice="4.849630562426625 2.5114247814515366e-17 1.4404113320098194e-16 2.5114247814514553e-17 4.849630562426624 -2.5690928086350963e-16 2.4248152812133124 2.424815281213312 1.3374437559049017" Properties=species:S:1:pos:R:3 cutoff=-1.0 nneightol=1.2 n_minim_iter=2 pbc="T T T"
Si      -0.00000000      -1.21240764      -0.33436094
Si      -0.00000000       1.21240764       0.33436094
