8
Lattice="4.543069808182878 0.4818377674515342 0.38063107241085614 1.828014663236541 4.186885872239316 0.3806310724115356 1.8280146632370564 1.3395671192616518 3.98502863897281" Properties=species:S:1:pos:R:3 unique_starting_index=42 config_type=initial n_minim_iter=1 energy=-1345.2459724569133 free_energy=-1345.2459724569133 pbc="T T T"
Si       4.45222248       4.67735563       2.27848723
Si       5.80127544       2.87322428       2.23186698
Si       4.48733974       3.25148960       4.02281521
Si       5.67792535       5.54010398       2.86980357
Si       6.99317947       3.65888339       2.97915663
Si       5.59555387       4.18679988       4.72523488
Si       6.69240987       4.90419054       3.87409919
Si       1.31223443       0.96160394       0.75962567
