12
Lattice="8.232707834379807 1.378926855027424 -1.7159260360568487 7.39881437893138 3.126122675395496 -2.06667680976491 1.0499507649104747 -0.29635126522973004 1.4176053888782967" Properties=species:S:1:pos:R:3 unique_starting_index=78 config_type=initial n_minim_iter=1 energy=-484750.117906678 free_energy=-484750.117906678 pbc="T T T"
Si       1.37295722       1.56866000       0.81246976
Si       9.07034266       1.77968056      -0.43755849
Si      15.28500329       4.29104859      -3.61781439
Si       6.44771777       1.79685552      -0.63859785
Si       9.88786176       2.69087994      -2.32630613
Si      10.29524043       2.75666340      -1.27805877
Si       8.17348675       1.58783099      -1.60935316
Si      10.17547141       2.45802945      -0.41204953
Si       7.61342066       1.00267944      -1.17311206
Si       9.86795974       1.70133636      -2.50904302
Si       6.19950002       2.10679789      -1.22175236
Si       8.37514305       2.36323665      -0.76479014
12
Lattice="8.152591760774204 1.3855141617388327 -1.6975503317425278 7.330651442210765 3.1112486063891773 -2.050083976788976 1.0397453854354213 -0.2943261688551691 1.4052477141564212" Properties=species:S:1:pos:R:3 unique_starting_index=78 config_type=initial n_minim_iter=2 stress="4468.823736370668 -12883.639423214996 -47931.08634498258 -12883.639423214996 9679.531441194134 -21843.295743174014 -47931.08634498258 -21843.295743174014 -35239.60241167443" pbc="T T T"
Si       1.36290537       1.54870753       0.79921314
Si       8.98382569       1.77793738      -0.43239490
Si      15.14100182       4.28393218      -3.58561073
Si       6.38787930       1.79220164      -0.63314400
Si       9.79102340       2.68709690      -2.30106970
Si      10.19760417       2.75326309      -1.26355418
Si       8.09868843       1.59024551      -1.59371071
Si      10.07821942       2.45291097      -0.41070462
Si       7.53842528       1.01026053      -1.15843390
Si       9.76872408       1.70858771      -2.48128285
Si       6.14207453       2.10005008      -1.21229659
Si       8.29740898       2.35947438      -0.75823931
12
Lattice="7.921631788200959 1.4290510589428556 -1.4569341198886832 7.130866271716453 3.0878784812542968 -1.8210498635318266 1.0501108835827078 -0.26381395936643637 1.4295554044998748" Properties=species:S:1:pos:R:3 unique_starting_index=78 config_type=initial n_minim_iter=3 stress="-118681.24517401251 -94151.4214008761 70396.44035214158 -94151.4214008761 13877.981064777518 -128689.16971737183 70396.44035214158 -128689.16971737183 -56584.563016081534" pbc="T T T"
Si       1.36937906       1.50830953       0.82862446
Si       8.77743505       1.81822827      -0.16915034
Si      14.72817047       4.31363064      -3.14312111
Si       6.23784103       1.80956965      -0.44140519
Si       9.50273205       2.70508052      -1.98374148
Si       9.94449542       2.79350985      -0.94627552
Si       7.89970779       1.61321088      -1.36624957
Si       9.83804987       2.49159770      -0.12264298
Si       7.32936272       1.05661004      -0.92941580
Si       9.46395427       1.75053655      -2.18043178
Si       5.98257563       2.10801967      -1.02889659
Si       8.10963572       2.39926606      -0.50318242
12
Lattice="7.809195424087557 1.5075233006519762 -1.3082290615477825 7.0546867514997915 3.0943573431119487 -1.660391789235761 1.052580886761408 -0.21716347015703505 1.4383933900164825" Properties=species:S:1:pos:R:3 unique_starting_index=78 config_type=initial n_minim_iter=4 stress="-182312.22537273675 -14819.610997923666 44686.10888520327 -14819.610997923666 -167977.38520019027 -83541.04869269006 44686.10888520327 -83541.04869269006 -97319.7609967891" pbc="T T T"
Si       1.38865782       1.48483926       0.85056413
Si       8.68427761       1.90964281      -0.00757816
Si      14.54954673       4.40837907      -2.85537354
Si       6.17517213       1.85950045      -0.31615526
Si       9.36723135       2.76470075      -1.77047057
Si       9.83604105       2.88393321      -0.73416081
Si       7.81432910       1.67374104      -1.22640487
Si       9.73030853       2.58566685       0.05769386
Si       7.22328153       1.13942557      -0.78902593
Si       9.30960421       1.83146785      -1.99220285
Si       5.91603836       2.14347904      -0.90564916
Si       8.03591629       2.47987896      -0.33311273
12
Lattice="7.76841306379171 1.5582315584807294 -1.2040264793941062 7.028423105704291 3.1272821010672764 -1.5509734077411075 1.0589678422906799 -0.19968494560890357 1.4307079366478541" Properties=species:S:1:pos:R:3 unique_starting_index=78 config_type=initial n_minim_iter=5 stress="-370735.69486365904 86170.55418087752 87280.27440513992 86170.55418087752 -231403.0810047551 -12107.709213470547 87280.27440513992 -12107.709213470547 -145561.00621015546" pbc="T T T"
Si       1.40098773       1.47804944       0.83499179
Si       8.65480043       1.95883738       0.07822613
Si      14.50111484       4.49412139      -2.64686335
Si       6.16247669       1.89563046      -0.24267736
Si       9.30257264       2.81918224      -1.61161437
Si       9.80149567       2.96345036      -0.58043297
Si       7.80604840       1.71743579      -1.14058925
Si       9.69587195       2.64540447       0.15717547
Si       7.17507263       1.19598239      -0.69465097
Si       9.23580146       1.87977826      -1.85531851
Si       5.89087794       2.18679293      -0.82462952
Si       8.02531772       2.54878444      -0.21906935
12
Lattice="7.9097611505913825 1.5249728458988958 -1.15673926304241 7.149397774805654 3.0638185908106705 -1.5134848924703563 1.0862729345047906 -0.20218550450613337 1.4284044298089544" Properties=species:S:1:pos:R:3 unique_starting_index=78 config_type=initial n_minim_iter=6 stress="-314170.0968716395 60177.19787983664 101209.20109785923 60177.19787983664 -520079.74476919294 -166077.4848816367 101209.20109785923 -166077.4848816367 -137454.99580123866" pbc="T T T"
Si       1.42545601       1.42912113       0.80466016
Si       8.81840083       1.89612867       0.10931273
Si      14.77628574       4.40356411      -2.56854225
Si       6.27956450       1.85258182      -0.21477441
Si       9.44465147       2.75794498      -1.53095784
Si       9.98131604       2.91045161      -0.51068914
Si       7.97824930       1.67270921      -1.10810044
Si       9.86723879       2.58133165       0.18696870
Si       7.29928833       1.17006299      -0.64756428
Si       9.38794926       1.83367926      -1.78741552
Si       5.98992410       2.15215924      -0.79783449
Si       8.18488695       2.51179190      -0.16937245
12
Lattice="7.999055944855038 1.4639411843464245 -1.118578430217229 7.217679392885293 3.0030728047420494 -1.4625726875684275 1.1013602547614258 -0.20219899289543988 1.4040746808190419" Properties=species:S:1:pos:R:3 unique_starting_index=78 config_type=initial n_minim_iter=7 stress="-389488.8050655461 1612.391310670669 47543.90612381322 1612.391310670669 -564762.4424262702 -219359.1472649559 47543.90612381322 -219359.1472649559 -339051.91261845385" pbc="T T T"
Si       1.42860699       1.40629308       0.77706119
Si       8.91762760       1.81560512       0.12522519
Si      14.94162061       4.28709265      -2.49308670
Si       6.34933433       1.81046906      -0.19413975
Si       9.52020746       2.67528920      -1.45207804
Si      10.08804473       2.84753788      -0.45594487
Si       8.09935005       1.60235690      -1.07642480
Si       9.95929218       2.51723886       0.19359232
Si       7.38180508       1.10878100      -0.61548214
Si       9.48639227       1.75289762      -1.72438900
Si       6.04643369       2.11533063      -0.77046806
Si       8.27678879       2.47947331      -0.13850116
12
Lattice="8.201506457574897 1.6040577131717624 -1.159014585841306 7.428619020239475 3.1356863146261276 -1.5208590196576484 1.1181872596689293 -0.19883012351371296 1.4212434812230614" Properties=species:S:1:pos:R:3 unique_starting_index=78 config_type=initial n_minim_iter=8 stress="-157300.91855901576 74445.28978114438 144866.84017339372 74445.28978114438 -508065.8683868475 -192664.22512311078 144866.84017339372 -192664.22512311078 -137741.03182756918" pbc="T T T"
Si       1.46294991       1.41030006       0.74990962
Si       9.13748942       1.89857491       0.09472693
Si      15.35282945       4.54259339      -2.58161589
Si       6.52450929       1.93353928      -0.22824248
Si       9.73469241       2.83026315      -1.47917218
Si      10.34953582       3.03955415      -0.45206318
Si       8.37171582       1.74606631      -1.11241542
Si      10.20639058       2.70109030       0.10571798
Si       7.57155248       1.20138928      -0.65084160
Si       9.69581957       1.89330392      -1.76364990
Si       6.21950034       2.24561113      -0.82048145
Si       8.52217307       2.68232961      -0.19719912
12
Lattice="8.33702759699148 1.6899788218152394 -1.2856519028261317 7.573312725036161 3.21559607450057 -1.6558318398445793 1.114249371046217 -0.19712376961526543 1.4402579948263425" Properties=species:S:1:pos:R:3 unique_starting_index=78 config_type=initial n_minim_iter=9 stress="-5853.042250951705 115403.74147818734 144206.84431433855 115403.74147818734 -395324.30730673554 -159058.34317188672 144206.84431433855 -159058.34317188672 86387.44482116672" pbc="T T T"
Si       1.46961707       1.41485945       0.72622393
Si       9.26430333       1.91852770      -0.01131663
Si      15.63789917       4.68661953      -2.83581382
Si       6.63488242       2.01471117      -0.32311458
Si       9.86645740       2.92219296      -1.60366366
Si      10.50833698       3.16024512      -0.54997790
Si       8.58031566       1.83257773      -1.24296802
Si      10.35301367       2.81963258      -0.08264234
Si       7.70143594       1.25334483      -0.75634514
Si       9.81880990       1.96501141      -1.90148422
Si       6.33406480       2.34010902      -0.93244864
Si       8.68987245       2.83230555      -0.32930091
12
Lattice="8.410530974064844 1.705643168753848 -1.3266150729288348 7.645216694055268 3.227643163587519 -1.6959779311533982 1.1164438730151398 -0.1949962303349551 1.4440677437311227" Properties=species:S:1:pos:R:3 unique_starting_index=78 config_type=initial n_minim_iter=10 stress="70072.15156022097 156237.61962684445 106458.64877909844 156237.61962684445 -355078.0331029473 -138920.29306410742 106458.64877909844 -138920.29306410742 157513.634810639" pbc="T T T"
Si       1.47119585       1.41740964       0.72168093
Si       9.34738652       1.91748596      -0.04228225
Si      15.79140024       4.69658473      -2.91799966
Si       6.69044266       2.03250665      -0.35112187
Si       9.93729548       2.93695748      -1.64214787
Si      10.59250909       3.18738610      -0.57041104
Si       8.68015388       1.84452182      -1.28864125
Si      10.43664377       2.84458222      -0.14370070
Si       7.76978428       1.25621025      -0.79794632
Si       9.88608026       1.96170520      -1.94696432
Si       6.39511289       2.36707724      -0.96752703
Si       8.77295121       2.88147918      -0.37533406
12
Lattice="8.463458138273241 1.6510184996172557 -1.36811793713013 7.6851809873483905 3.166045846733444 -1.7324198851449593 1.1194242232526646 -0.1946623475361564 1.4511032627702822" Properties=species:S:1:pos:R:3 unique_starting_index=78 config_type=initial n_minim_iter=11 stress="116567.39847769517 116667.45384556109 121683.05299819197 116667.45384556109 -336152.12718530686 -117007.08287212867 121683.05299819197 -117007.08287212867 164870.58941982576" pbc="T T T"
Si       1.45660680       1.40866197       0.72769548
Si       9.40982505       1.83839719      -0.07025275
Si      15.89926155       4.57860331      -2.99291405
Si       6.72109180       1.99369703      -0.37450158
Si       9.96734864       2.86336217      -1.67816702
Si      10.63731264       3.12649961      -0.57782404
Si       8.77245492       1.77938728      -1.33140834
Si      10.49768827       2.78641401      -0.19861866
Si       7.82320813       1.19463718      -0.84793149
Si       9.92253891       1.86845152      -1.99653980
Si       6.44088785       2.34451166      -1.00115117
Si       8.81472779       2.84465430      -0.42217641
12
Lattice="8.506955379722251 1.6436558281505602 -1.529474442400881 7.728382103206667 3.1602773948121814 -1.8982634303252641 1.1027129852207658 -0.2030064135465279 1.4696374855918775" Properties=species:S:1:pos:R:3 unique_starting_index=78 config_type=initial n_minim_iter=12 stress="169769.3625569586 23127.872479527734 137689.11568842048 23127.872479527734 -355078.5376763473 -120653.0204924335 137689.11568842048 -120653.0204924335 126795.35131526587" pbc="T T T"
Si       1.42195865       1.39635647       0.71980704
Si       9.47314301       1.79721593      -0.19445968
Si      15.99958194       4.55400241      -3.30782558
Si       6.73170387       1.99405756      -0.48322763
Si       9.95003159       2.84397061      -1.84063474
Si      10.65488035       3.13201744      -0.72320663
Si       8.87508086       1.75375975      -1.51666903
Si      10.55609779       2.78631824      -0.40094213
Si       7.86935988       1.16045463      -1.01889528
Si       9.93975259       1.83211170      -2.18428268
Si       6.49523461       2.38168705      -1.13597925
Si       8.83552362       2.86577435      -0.59347880
12
Lattice="8.505812204887018 1.6847232196029316 -1.6439913229377658 7.737366608172014 3.211826490735963 -2.0215459640587463 1.0847415555076443 -0.21270486696533925 1.4780197872226097" Properties=species:S:1:pos:R:3 unique_starting_index=78 config_type=initial n_minim_iter=13 stress="120238.60169026471 -11782.805597768462 161550.38110694787 -11782.805597768462 -315127.4400504735 -135348.04112739055 161550.38110694787 -135348.04112739055 132965.4548095737" pbc="T T T"
Si       1.40045360       1.40193858       0.69336044
Si       9.48040115       1.81245780      -0.29215146
Si      16.02632939       4.64317022      -3.55410013
Si       6.71305093       2.03180913      -0.56176043
Si       9.91775751       2.89472836      -1.96055884
Si      10.63118800       3.19108772      -0.84034776
Si       8.89329583       1.79099010      -1.63807055
Si      10.54990251       2.84714874      -0.54252086
Si       7.87080538       1.17238413      -1.14319905
Si       9.91544537       1.86357154      -2.31305809
Si       6.51152670       2.45025677      -1.23293116
Si       8.83639957       2.91453487      -0.71628493
12
Lattice="8.568115027641198 1.7815979062920992 -1.6759900630306093 7.812489678073886 3.3156430916821495 -2.0613602935008806 1.0829949158621832 -0.21427623670747817 1.4734212487607752" Properties=species:S:1:pos:R:3 unique_starting_index=78 config_type=initial n_minim_iter=14 stress="131549.86881003185 -2699.968877587536 162543.86349469895 -2699.968877587536 -270850.78003821213 -142155.73231337266 162543.86349469895 -142155.73231337266 100606.47138191706" pbc="T T T"
Si       1.40560085       1.42377056       0.68192436
Si       9.54301925       1.90158523      -0.32474197
Si      16.16849558       4.83493585      -3.63392969
Si       6.76504067       2.11865252      -0.59225377
Si       9.99218457       3.01722018      -1.99305801
Si      10.70015442       3.31886641      -0.88648840
Si       8.97695192       1.87855813      -1.68127038
Si      10.62785057       2.97188246      -0.58735723
Si       7.92346964       1.25057757      -1.18328962
Si       9.98921397       1.97137327      -2.34578495
Si       6.58095600       2.54481719      -1.26333535
Si       8.91306036       3.01366514      -0.76257952
12
Lattice="8.601276679733411 2.0338647470823688 -2.158531030552899 7.910488743460227 3.588932165272704 -2.555313350320245 0.9998572169865315 -0.22490604188223345 1.48792540696452" Properties=species:S:1:pos:R:3 unique_starting_index=78 config_type=initial n_minim_iter=15 stress="150159.76949852693 -11512.02053702257 35969.14318624523 -11512.02053702257 -97587.02004389217 -91520.78803913252 35969.14318624523 -91520.78803913252 229072.7956349218" pbc="T T T"
Si       1.28484684       1.44196603       0.63156361
Si       9.52000050       2.11652517      -0.79822618
Si      16.35859985       5.31713135      -4.61922906
Si       6.79526829       2.42050156      -0.97006281
Si      10.01487450       3.31902134      -2.50798644
Si      10.58363034       3.69590012      -1.44704449
Si       9.11901589       2.07984619      -2.25982482
Si      10.58178065       3.33145587      -1.06758002
Si       7.90650257       1.42520443      -1.66502273
Si      10.06306449       2.21887747      -2.88675781
Si       6.68854152       2.80794410      -1.62298977
Si       8.99813689       3.25956467      -1.31344440
12
Lattice="8.628385019620355 2.0611709747887064 -2.2104107784161604 7.942797584215541 3.6178095892334343 -2.6062140072934756 0.9931217364997769 -0.22470089057562234 1.4867636253903653" Properties=species:S:1:pos:R:3 unique_starting_index=78 config_type=initial n_minim_iter=16 stress="129481.8003722762 -13440.345124520027 16317.407750930108 -13440.345124520027 -73319.47868026202 -86111.479195898 16317.407750930108 -86111.479195898 205922.1332802643" pbc="T T T"
Si       1.26982085       1.44123925       0.63059398
Si       9.54436332       2.14001737      -0.85168529
Si      16.42164174       5.36592954      -4.72627520
Si       6.81753379       2.45883376      -1.01341699
Si      10.04203383       3.35070294      -2.55959727
Si      10.59318015       3.73974137      -1.50614584
Si       9.16414909       2.10246017      -2.32771588
Si      10.60573156       3.37533293      -1.11753948
Si       7.92799793       1.44395617      -1.72027463
Si      10.09605479       2.24199952      -2.94176593
Si       6.72091914       2.83818482      -1.65975753
Si       9.03915794       3.28413439      -1.37537196
12
Lattice="8.657198191610163 2.080275885888902 -2.2678955195507196 7.975788959985007 3.633985205167531 -2.663207512499007 0.9863518335295282 -0.2243294881289565 1.4877412520295112" Properties=species:S:1:pos:R:3 unique_starting_index=78 config_type=initial n_minim_iter=17 stress="91731.67611888796 -4697.119120381285 10194.374333336224 -4697.119120381285 -138059.69822341585 -113246.95134195348 10194.374333336224 -113246.95134195348 170375.88037613351" pbc="T T T"
Si       1.25650851       1.44200985       0.62598877
Si       9.57432303       2.15682722      -0.90310486
Si      16.48383501       5.39255843      -4.83991167
Si       6.85143802       2.49270834      -1.07023225
Si      10.07362349       3.36385760      -2.61970427
Si      10.61696978       3.76048221      -1.55475812
Si       9.20497314       2.11696895      -2.41247103
Si      10.61776093       3.40779960      -1.17070460
Si       7.95799659       1.45584972      -1.77774379
Si      10.12280812       2.26742167      -3.00726991
Si       6.75588424       2.85764440      -1.70333531
Si       9.06937266       3.28879765      -1.43799392
12
Lattice="8.707726253812528 2.1119956214762086 -2.353059654693007 8.032072490347815 3.664910521354965 -2.746547159780538 0.9769494974917259 -0.22367644636343997 1.4880741069359311" Properties=species:S:1:pos:R:3 unique_starting_index=78 config_type=initial n_minim_iter=18 stress="44811.00103476585 40729.835814499886 40160.901784710215 40729.835814499886 -184531.54438708822 -136688.30976823386 40160.901784710215 -136688.30976823386 137905.30314205607" pbc="T T T"
Si       1.24691832       1.43500458       0.62558312
Si       9.61363774       2.18327076      -1.00112632
Si      16.59654960       5.44040233      -5.00373917
Si       6.90458672       2.55182578      -1.15080314
Si      10.13805658       3.39387051      -2.70512990
Si      10.66864902       3.80974464      -1.64013551
Si       9.26248402       2.13193001      -2.53235277
Si      10.65244611       3.46480094      -1.23918853
Si       8.02666723       1.47397866      -1.86704280
Si      10.15239328       2.30802770      -3.10471995
Si       6.81807207       2.89080248      -1.77346714
Si       9.11099011       3.31046595      -1.51926748
12
Lattice="8.736331247356343 2.1144099925823365 -2.3984345152839217 8.061319644475837 3.664798531058753 -2.7887033949074116 0.9726566560372863 -0.2220814934350459 1.4891597760652178" Properties=species:S:1:pos:R:3 unique_starting_index=78 config_type=initial n_minim_iter=19 stress="45527.354077210744 67580.26703822991 57504.32779841152 67580.26703822991 -216812.08566837345 -134351.32364330054 57504.32779841152 -134351.32364330054 135720.20633784623" pbc="T T T"
Si       1.24045898       1.42774698       0.62524390
Si       9.62787533       2.18570608      -1.04816347
Si      16.66049516       5.43149165      -5.08737592
Si       6.93187206       2.57783250      -1.19080500
Si      10.17164971       3.39217409      -2.74303232
Si      10.69661964       3.82082119      -1.67940182
Si       9.29536578       2.12591370      -2.59944391
Si      10.66816745       3.47400258      -1.27260544
Si       8.07297481       1.46944248      -1.92080913
Si      10.16932749       2.31406136      -3.15802617
Si       6.85519288       2.89541233      -1.80944943
Si       9.13434172       3.30304969      -1.56260424
12
Lattice="8.762646988973287 2.1224965035849697 -2.445546693276265 8.08928707842446 3.6715924274850926 -2.8340050909886116 0.967991254033694 -0.22110151977227482 1.4917794184108812" Properties=species:S:1:pos:R:3 unique_starting_index=78 config_type=initial n_minim_iter=20 stress="12506.454488866852 88279.31981432502 81670.95520896105 88279.31981432502 -226797.92005924982 -118551.16837744256 81670.95520896105 -118551.16837744256 136304.6664059785" pbc="T T T"
Si       1.23098600       1.42883867       0.62508931
Si       9.64330397       2.19936623      -1.11250913
Si      16.72273603       5.42829498      -5.17879823
Si       6.96306695       2.61983351      -1.23806210
Si      10.19457692       3.39399720      -2.76886170
Si      10.71220484       3.82906876      -1.71523999
Si       9.32336900       2.11737433      -2.65772770
Si      10.68274022       3.48702680      -1.30639664
Si       8.12649989       1.47168268      -1.97258704
Si      10.17846950       2.33473145      -3.21467331
Si       6.89614292       2.90392476      -1.84864800
Si       9.15888421       3.30123975      -1.61442336
12
Lattice="8.822020065457487 2.1554184095857414 -2.496869616431022 8.15127936954354 3.7054996073909034 -2.8871287340473195 0.9662923469057253 -0.22126990748163905 1.4952495525441005" Properties=species:S:1:pos:R:3 unique_starting_index=78 config_type=initial n_minim_iter=21 stress="27019.981507764634 103236.732858629 87140.11590505803 103236.732858629 -193866.65740697083 -111833.33873103456 87140.11590505803 -111833.33873103456 165917.6951412258" pbc="T T T"
Si       1.22354866       1.42811535       0.61781438
Si       9.69797291       2.24017961      -1.16820453
Si      16.84989263       5.47941335      -5.29096047
Si       7.03115123       2.67910924      -1.29623893
Si      10.26262649       3.42666453      -2.80733389
Si      10.77753142       3.87457104      -1.76790572
Si       9.38781187       2.14391796      -2.70680648
Si      10.74476199       3.52378311      -1.35406975
Si       8.19975417       1.50210151      -2.02051727
Si      10.22304040       2.37389523      -3.26923333
Si       6.96632893       2.93248908      -1.89450591
Si       9.20919181       3.32341544      -1.67064494
