14
Lattice="7.502231284031039 -1.5727112510535848e-14 -2.5981980485129426e-15 3.751115642015535 6.4971228770372225 -5.004587087212102e-15 3.7511156420155247 2.1657076256790733 5.196270516431337" Properties=species:S:1:pos:R:3 unique_starting_index=33 config_type=initial n_minim_iter=16 energy=-2280.0176850175903 free_energy=-2280.0176850175903 pbc="T T T"
Si       6.31904175       6.61568574      -0.62167422
Si      10.07206271       4.21395284      -0.62167422
Si       6.11559052       2.16460781      -0.62167422
Si       8.68449303       2.28165864       4.57415581
Si       5.13595949       4.33242550       4.57415581
Si       8.68624246       6.38016226       4.57415581
Si       5.61768985       5.41887612       1.40933889
Si       9.38627112       5.41974622       1.40933889
Si       7.50273401       2.15562406       1.40933889
Si       9.36922522       1.07714159       2.54262506
Si       3.75045104       4.34168855       2.54262506
Si       9.38701873       7.57541625       2.54262506
Si       7.50223166       4.33141546       2.29834414
Si       7.50223166       4.33141546       6.84847292
