22
Lattice="9.97704772211131 0.44471957210256735 -0.025241825473282704 -3.7971191073545847 9.236944474860737 0.025241825473290957 -3.1112403415752494 -4.827251261754741 8.170539926448727" Properties=species:S:1:pos:R:3 unique_starting_index=6 config_type=initial n_minim_iter=1 energy=-3583.52968890436 free_energy=-3583.52968890436 pbc="T T T"
Si      -3.23063587       5.63723453       6.51079749
Si       2.86759639       1.40769349       5.73099725
Si       6.71982547       3.16775007      -0.09964693
Si      -0.22930998      -0.49753286       4.21067761
Si       6.93535400      -1.18880764       2.41430085
Si      -0.43493797       3.85270520       1.68498425
Si       2.71394296       4.43694688       3.95986231
Si      -3.06708190       2.60166151       8.27018685
Si      -0.00727481       6.08205830       1.96521646
Si       1.76714707       6.42098363       3.27854907
Si       1.72035178       4.61416252       1.90995233
Si       1.97932598       6.65067702       1.03251104
Si       1.96893316      -0.52101430       4.89199085
Si       2.40857112      -2.27320204       6.20532346
Si       2.08794636      -0.23185206       7.13802888
Si       0.34975242      -1.32416189       6.26058759
Si      -1.87840349       2.11489865       1.61331789
Si       4.01320009       3.33562901       5.44929318
Si      -1.77527245       0.21728892       2.72124675
Si      -4.19919532       3.59628943       6.58246385
Si       3.08996431       4.84083203      -0.00000000
Si       3.43290369      -2.19126584       4.07264905
22
Lattice="9.97551982125535 0.4448253122319166 -0.026767184370567614 -3.79637992375106 9.235603106305533 0.026767184370575858 -3.1121317333434035 -4.825812736802928 8.169195140798589" Properties=species:S:1:pos:R:3 unique_starting_index=6 config_type=initial n_minim_iter=2 stress="-0.00016243976420997867 -6.758829496091668e-06 -6.225898666170877e-06 -6.758829496091668e-06 -0.00016871410562362813 3.974069863769747e-06 -6.225898666170877e-06 3.974069863769747e-06 -0.00015812551631597005" pbc="T T T"
Si      -3.23103297       5.63703840       6.51084640
Si       2.86623117       1.40814500       5.72970108
Si       6.71891963       3.16732294      -0.10041612
Si      -0.22988579      -0.49702953       4.20986656
Si       6.93391903      -1.18831161       2.41272687
Si      -0.43510090       3.85235959       1.68511592
Si       2.71296183       4.43683940       3.95932858
Si      -3.06797935       2.60209856       8.26961126
Si      -0.00750478       6.08143373       1.96554188
Si       1.76643388       6.42047115       3.27840687
Si       1.71983746       4.61373335       1.90986815
Si       1.97895175       6.64993429       1.03271365
Si       1.96787719      -0.52043844       4.89078827
Si       2.40721004      -2.27223506       6.20365325
Si       2.08653883      -0.23106568       7.13648148
Si       0.34868828      -1.32337057       6.25932698
Si      -1.87837293       2.11477806       1.61355436
Si       4.01176515       3.33577650       5.44803903
Si      -1.77542592       0.21748798       2.72115610
Si      -4.19946979       3.59636353       6.58240796
Si       3.08956995       4.84021421      -0.00000000
Si       3.43169404      -2.19049371       4.07121398
22
Lattice="9.977025362305927 0.4455908854315393 -0.030606350002863762 -3.7963193662172072 9.237291030760009 0.030606350002872023 -3.1161508788524226 -4.824973844484681 8.170052274386116" Properties=species:S:1:pos:R:3 unique_starting_index=6 config_type=initial n_minim_iter=3 stress="9.936721319726724e-05 5.8799935581408357e-05 -0.000249253832573925 5.8799935581408357e-05 0.00015395223730174597 0.0001591018738916673 -0.000249253832573925 0.0001591018738916673 6.183453231573756e-05" pbc="T T T"
Si      -3.23351653       5.63955331       6.51446550
Si       2.86426451       1.41019729       5.72930848
Si       6.72048713       3.16793788      -0.10250820
Si      -0.23130805      -0.49601059       4.20973328
Si       6.93409496      -1.18762696       2.41013743
Si      -0.43573271       3.85369251       1.68619312
Si       2.71203181       4.43927071       3.96031899
Si      -3.07210066       2.60461816       8.27256047
Si      -0.00805934       6.08331087       1.96744637
Si       1.76570387       6.42286713       3.27988430
Si       1.71953335       4.61520363       1.91073813
Si       1.97920576       6.65194916       1.03376107
Si       1.96633867      -0.51925296       4.89016797
Si       2.40512703      -2.27110887       6.20260590
Si       2.08424033      -0.22914811       7.13629119
Si       0.34613080      -1.32218852       6.25931414
Si      -1.87934277       2.11571356       1.61498201
Si       4.01037198       3.33807591       5.44757534
Si      -1.77677283       0.21803128       2.72247693
Si      -4.20217151       3.59840452       6.58567660
Si       3.09035300       4.84144096      -0.00000000
Si       3.43043724      -2.18969147       4.06972296
22
Lattice="9.975062325956685 0.4431804206261607 -0.027779638933080684 -3.7976793143200283 9.234495607099085 0.02777963893308893 -3.1121067050837508 -4.823891796016333 8.16969453509647" Properties=species:S:1:pos:R:3 unique_starting_index=6 config_type=initial n_minim_iter=4 stress="3.39459131822435e-05 -0.00013503770053394716 -7.283431649844845e-05 -0.00013503770053394716 -9.141198161761473e-05 4.649106542834882e-05 -7.283431649844845e-05 4.649106542834882e-05 0.00012014220341818585" pbc="T T T"
Si      -3.23077766       5.63619506       6.51406185
Si       2.86337189       1.40871357       5.72801967
Si       6.72093249       3.16151288      -0.10295317
Si      -0.22742681      -0.49601081       4.20554321
Si       6.93520609      -1.19038970       2.41389522
Si      -0.43724770       3.85304956       1.68341232
Si       2.71111873       4.43866727       3.96415132
Si      -3.07407180       2.60339914       8.27264770
Si      -0.01018513       6.08127525       1.96728893
Si       1.76405220       6.41998696       3.28058092
Si       1.71791315       4.61227928       1.91170286
Si       1.97686489       6.65007491       1.03355334
Si       1.96846576      -0.52088167       4.88911361
Si       2.40821979      -2.27281207       6.20240560
Si       2.08757001      -0.23097844       7.13614119
Si       0.34820456      -1.32380727       6.25799167
Si      -1.88038614       2.11659584       1.61399082
Si       4.01015959       3.33433171       5.44586342
Si      -1.77603543       0.21734431       2.72383111
Si      -4.19824773       3.59611621       6.58348335
Si       3.08869151       4.83883802      -0.00000000
Si       3.43147781      -2.19035568       4.07095745
22
Lattice="9.974246328791985 0.448054462863302 -0.02632267533668826 -3.792914751747069 9.235807507472815 0.02632267533669651 -3.1128528893347007 -4.82776867809741 8.166384266766482" Properties=species:S:1:pos:R:3 unique_starting_index=6 config_type=initial n_minim_iter=5 stress="-2.205097369382031e-05 0.0001707672225623697 1.4090819477177518e-05 0.0001707672225623697 0.00013647527072639705 -8.994348292952875e-06 1.4090819477177518e-05 -8.994348292952875e-06 -0.0001310538552052816" pbc="T T T"
Si      -3.22636889       5.63576852       6.51095174
Si       2.86409460       1.41021780       5.72553091
Si       6.72227132       3.16488509      -0.10287816
Si      -0.22620462      -0.49666457       4.20291882
Si       6.93470405      -1.18810370       2.41453068
Si      -0.43547239       3.85430398       1.68175519
Si       2.71321355       4.44180968       3.96346544
Si      -3.07232288       2.60215640       8.26926243
Si      -0.00727382       6.08322658       1.96620127
Si       1.76718979       6.42288090       3.27917682
Si       1.72006644       4.61454776       1.91119875
Si       1.97958621       6.65340127       1.03295883
Si       1.96902355      -0.52069419       4.88720744
Si       2.40801785      -2.27322669       6.20018299
Si       2.08869529      -0.23098649       7.13342543
Si       0.34860944      -1.32477593       6.25518552
Si      -1.87930760       2.11656328       1.61301835
Si       4.01224479       3.33669799       5.44347979
Si      -1.77551318       0.21635505       2.72290447
Si      -4.19471297       3.59451582       6.57968859
Si       3.09066579       4.84193099      -0.00000000
Si       3.43069672      -2.18985710       4.07003079
22
Lattice="9.97457513272945 0.4464878525481257 -0.026986121461637973 -3.7944741821204406 9.235446181000608 0.026986121461646216 -3.1127968057443502 -4.826447746359288 8.16750432687368" Properties=species:S:1:pos:R:3 unique_starting_index=6 config_type=initial n_minim_iter=6 stress="-1.7530915467389568e-05 2.4421480628444126e-06 5.2990731644187664e-05 2.4421480628444126e-06 -1.5263826066287608e-05 -3.3824654234757433e-05 5.2990731644187664e-05 -3.3824654234757433e-05 -1.9089782581811382e-05" pbc="T T T"
Si      -3.22605095       5.63531469       6.51440765
Si       2.86162414       1.41068887       5.72435528
Si       6.72378388       3.16060509      -0.10612382
Si      -0.22314013      -0.49666289       4.20046109
Si       6.93655633      -1.19039188       2.41616292
Si      -0.43752124       3.85536091       1.68008280
Si       2.71075033       4.44398304       3.96704324
Si      -3.07678580       2.60304735       8.27362814
Si      -0.00920426       6.08267958       1.96768403
Si       1.76551625       6.42301490       3.28050971
Si       1.71918528       4.61482052       1.91326134
Si       1.97674837       6.65278893       1.03384834
Si       1.96990577      -0.52083483       4.88699461
Si       2.40839053      -2.27388706       6.19982030
Si       2.08939073      -0.23249743       7.13365598
Si       0.34928391      -1.32413943       6.25424298
Si      -1.88091062       2.11745335       1.61462290
Si       4.01248314       3.33532228       5.44276974
Si      -1.77680529       0.21731299       2.72473458
Si      -4.19473408       3.59439613       6.57986754
Si       3.09005047       4.84096702      -0.00000000
Si       3.43088916      -2.18997994       4.07025910
22
Lattice="9.975447760624425 0.44662421428248017 -0.028488233087596813 -3.794717885692979 9.236295111230024 0.028488233087605057 -3.114377422613445 -4.826132189776829 8.16816651088053" Properties=species:S:1:pos:R:3 unique_starting_index=6 config_type=initial n_minim_iter=7 stress="-4.132387860719969e-06 -3.1331277351519764e-05 2.7158523354773198e-05 -3.1331277351519764e-05 -3.321776886824179e-05 -1.7335628958410143e-05 2.7158523354773198e-05 -1.7335628958410143e-05 1.586675602757264e-05" pbc="T T T"
Si      -3.22625398       5.63631069       6.51749967
Si       2.85949752       1.41187329       5.72356020
Si       6.72543566       3.15966824      -0.10897529
Si      -0.22174156      -0.49697975       4.19922689
Si       6.93781802      -1.19137026       2.41611807
Si      -0.43835666       3.85676057       1.67915507
Si       2.70892241       4.44641906       3.96893962
Si      -3.07991161       2.60446674       8.27714180
Si      -0.00980389       6.08275978       1.96937298
Si       1.76485875       6.42512390       3.28105830
Si       1.71926370       4.61641705       1.91445176
Si       1.97562710       6.65324481       1.03464124
Si       1.97051494      -0.52022774       4.88710820
Si       2.40713511      -2.27408164       6.19879353
Si       2.08869569      -0.23300699       7.13352526
Si       0.34911841      -1.32308058       6.25371474
Si      -1.88185116       2.11791278       1.61663424
Si       4.01329076       3.33564107       5.44239193
Si      -1.77843677       0.21849531       2.72577458
Si      -4.19574569       3.59490092       6.58002050
Si       3.09036494       4.84145967      -0.00000000
Si       3.43053517      -2.18975398       4.06983914
22
Lattice="9.975888943056326 0.44711934019918076 -0.029466197615270518 -3.7944545254445297 9.23690374329552 0.02946619761527877 -3.115554036440868 -4.826157880532041 8.16827199128255" Properties=species:S:1:pos:R:3 unique_starting_index=6 config_type=initial n_minim_iter=8 stress="3.926728527044808e-06 -1.6872365091669218e-05 -5.806001617326776e-07 -1.6872365091669218e-05 -1.1736187532628318e-05 3.706044263319919e-07 -5.806001617326776e-07 3.706044263319919e-07 1.4696572710979824e-05" pbc="T T T"
Si      -3.22659279       5.63717944       6.51933160
Si       2.85809862       1.41289048       5.72333525
Si       6.72661140       3.15996119      -0.11067933
Si      -0.22125049      -0.49755990       4.19849894
Si       6.93859419      -1.19174145       2.41547054
Si      -0.43833926       3.85740195       1.67840659
Si       2.70771736       4.44769830       3.96977304
Si      -3.08131751       2.60563084       8.27895132
Si      -0.00984975       6.08268502       1.97045919
Si       1.76469489       6.42688600       3.28105674
Si       1.71964553       4.61745189       1.91490177
Si       1.97537246       6.65368225       1.03487618
Si       1.97100564      -0.51966019       4.88721525
Si       2.40590999      -2.27418041       6.19781280
Si       2.08802307      -0.23307949       7.13339581
Si       0.34871970      -1.32232424       6.25337022
Si      -1.88221453       2.11819079       1.61812794
Si       4.01405686       3.33588273       5.44204154
Si      -1.77971672       0.21926626       2.72623044
Si      -4.19625379       3.59527131       6.57961024
Si       3.09071721       4.84201155      -0.00000000
Si       3.43016745      -2.18951927       4.06940289
22
Lattice="9.97609265289088 0.44835532998794464 -0.03115039551192815 -3.793419182548899 9.237608891182909 0.03115039551193641 -3.1175932011485634 -4.826222276260462 8.16777868458811" Properties=species:S:1:pos:R:3 unique_starting_index=6 config_type=initial n_minim_iter=9 stress="1.686860954900121e-05 3.0874269732533444e-05 -4.660892627876827e-05 3.0874269732533444e-05 4.5529742266251126e-05 2.975106715238363e-05 -4.660892627876827e-05 2.975106715238363e-05 -2.838815780707567e-06" pbc="T T T"
Si      -3.22791379       5.63895635       6.52323748
Si       2.85458654       1.41556461       5.72372060
Si       6.72965521       3.16118639      -0.11424091
Si      -0.22048531      -0.49985041       4.19609917
Si       6.94066296      -1.19262964       2.41290768
Si      -0.43717517       3.85759259       1.67569160
Si       2.70451748       4.44930476       3.97167951
Si      -3.08352685       2.60884317       8.28201959
Si      -0.00973313       6.08181370       1.97230516
Si       1.76473934       6.43038654       3.28048963
Si       1.72088350       4.61889438       1.91556542
Si       1.97503952       6.65439411       1.03460879
Si       1.97212293      -0.51821048       4.88728905
Si       2.40303140      -2.27450586       6.19547352
Si       2.08676977      -0.23314617       7.13316989
Si       0.34746774      -1.32065842       6.25221326
Si      -1.88281586       2.11923536       1.62170641
Si       4.01597344       3.33536463       5.44047934
Si      -1.78303274       0.22072217       2.72729934
Si      -4.19605695       3.59580641       6.57722266
Si       3.09133673       4.84298212      -0.00000000
Si       3.42924973      -2.18893347       4.06831414
22
Lattice="9.97398387165708 0.4488872150328503 -0.03119385763367609 -3.7920489026461515 9.235920047501224 0.03119385763368435 -3.1172605856067213 -4.8256204122792665 8.165714980249179" Properties=species:S:1:pos:R:3 unique_starting_index=6 config_type=initial n_minim_iter=10 stress="1.2356804681582626e-06 1.7888348984127992e-05 -4.584973565317035e-06 1.7888348984127992e-05 1.7841752408755838e-05 2.926646616806622e-06 -4.584973565317035e-06 2.926646616806622e-06 -1.01826778055859e-05" pbc="T T T"
Si      -3.23096058       5.63999535       6.52675464
Si       2.84992389       1.41863246       5.72680436
Si       6.73383109       3.16201106      -0.11674384
Si      -0.22036433      -0.50423199       4.19095925
Si       6.94363255      -1.19443355       2.40771676
Si      -0.43324710       3.85417945       1.67015419
Si       2.70008634       4.44701468       3.97475572
Si      -3.08420433       2.61357997       8.28245881
Si      -0.00961788       6.07941974       1.97126718
Si       1.76592813       6.43031976       3.27910442
Si       1.72251814       4.61742778       1.91585717
Si       1.97424703       6.65369481       1.03244183
Si       1.97189447      -0.51655843       4.88661055
Si       2.40114404      -2.27480735       6.19444780
Si       2.08680173      -0.23355755       7.13327314
Si       0.34578186      -1.31919132       6.24985781
Si      -1.88361513       2.12191713       1.62499775
Si       4.01735701       3.33149572       5.43629900
Si      -1.78679194       0.22095013       2.72941597
Si      -4.19158505       3.59512352       6.57191108
Si       3.09096748       4.84240364      -0.00000000
Si       3.42836164      -2.18836659       4.06726056
22
Lattice="9.973433234633251 0.44938739867993877 -0.03199629031866018 -3.7913633822561845 9.235631176236181 0.03199629031866842 -3.118004411153598 -4.825294324095126 8.16498171830503" Properties=species:S:1:pos:R:3 unique_starting_index=6 config_type=initial n_minim_iter=11 stress="1.6349651224032325e-06 3.165637037416777e-06 9.99534427355356e-06 3.165637037416777e-06 4.573682183144929e-06 -6.380154671382611e-06 9.99534427355356e-06 -6.380154671382611e-06 -3.857035117664576e-07" pbc="T T T"
Si      -3.23277459       5.64159245       6.52997139
Si       2.84646261       1.42055135       5.72839030
Si       6.73692304       3.16237202      -0.11901987
Si      -0.22011357      -0.50657795       4.18781394
Si       6.94553587      -1.19593895       2.40459512
Si      -0.43109302       3.85324367       1.66700661
Si       2.69724391       4.44679185       3.97716777
Si      -3.08592251       2.61686260       8.28400158
Si      -0.00956256       6.07873883       1.97103688
Si       1.76654994       6.43086587       3.27869143
Si       1.72362961       4.61763681       1.91645670
Si       1.97345999       6.65357609       1.03161743
Si       1.97138421      -0.51543841       4.88629028
Si       2.39975930      -2.27471777       6.19394483
Si       2.08628158      -0.23399533       7.13336429
Si       0.34475970      -1.31776905       6.24852502
Si      -1.88468670       2.12358654       1.62735873
Si       4.01829126       3.33006267       5.43376428
Si      -1.78922895       0.22152030       2.73121743
Si      -4.18967796       3.59489161       6.56961928
Si       3.09103493       4.84250929      -0.00000000
Si       3.42771441      -2.18795346       4.06649271
22
Lattice="9.97352997334049 0.4496604224542043 -0.03271123188896053 -3.791156463855613 9.235833870918643 0.03271123188896876 -3.1187588758030587 -4.8251475130815615 8.164916362151958" Properties=species:S:1:pos:R:3 unique_starting_index=6 config_type=initial n_minim_iter=12 stress="-1.5958429090332072e-06 -3.140941408084662e-06 6.515414424546894e-06 -3.140941408084662e-06 -4.5116345830818944e-06 -4.1588714346973e-06 6.515414424546894e-06 -4.1588714346973e-06 4.0905810590997215e-07" pbc="T T T"
Si      -3.23357184       5.64289091       6.53185255
Si       2.84461561       1.42127553       5.72904600
Si       6.73846236       3.16260134      -0.12024196
Si      -0.22008388      -0.50747401       4.18657446
Si       6.94631264      -1.19688956       2.40315913
Si      -0.43012714       3.85341670       1.66577504
Si       2.69596783       4.44706405       3.97834190
Si      -3.08711704       2.61850220       8.28515831
Si      -0.00947880       6.07885861       1.97112303
Si       1.76670240       6.43126485       3.27868527
Si       1.72425350       4.61816822       1.91683969
Si       1.97301920       6.65359736       1.03137746
Si       1.97092745      -0.51498533       4.88623108
Si       2.39907821      -2.27444455       6.19379333
Si       2.08573199      -0.23423939       7.13353889
Si       0.34422458      -1.31683261       6.24807667
Si      -1.88544980       2.12432941       1.62851353
Si       4.01869785       3.32988214       5.43265600
Si      -1.79031835       0.22195990       2.73226036
Si      -4.18923041       3.59486171       6.56911406
Si       3.09118675       4.84274715      -0.00000000
Si       3.42738555      -2.18774354       4.06610256
22
Lattice="9.973792223029415 0.44974771701223226 -0.03305056347860053 -3.791187694560661 9.236108497724082 0.03305056347860875 -3.119160413496293 -4.825145898344723 8.165090448453737" Properties=species:S:1:pos:R:3 unique_starting_index=6 config_type=initial n_minim_iter=13 stress="-2.18708265199305e-06 -2.847552321766158e-06 9.615815317573892e-07 -2.847552321766158e-06 -4.830516028068438e-06 -6.137896542885298e-07 9.615815317573892e-07 -6.137896542885298e-07 -3.6945422684443514e-07" pbc="T T T"
Si      -3.23370585       5.64361970       6.53258154
Si       2.84397165       1.42129802       5.72921175
Si       6.73892229       3.16278344      -0.12058878
Si      -0.22017779      -0.50763505       4.18645884
Si       6.94646486      -1.19737528       2.40282813
Si      -0.42984244       3.85387822       1.66555947
Si       2.69569077       4.44727460       3.97863160
Si      -3.08754705       2.61899766       8.28567922
Si      -0.00937376       6.07918391       1.97125933
Si       1.76664059       6.43142134       3.27877176
Si       1.72453518       4.61852570       1.91697056
Si       1.97289623       6.65364795       1.03133237
Si       1.97069388      -0.51497389       4.88631868
Si       2.39892752      -2.27421070       6.19383111
Si       2.08542811      -0.23432801       7.13375807
Si       0.34402870      -1.31642500       6.24811988
Si      -1.88581376       2.12455276       1.62882804
Si       4.01879651       3.33008282       5.43240313
Si      -1.79057939       0.22213550       2.73268732
Si      -4.18930736       3.59490186       6.56931296
Si       3.09130226       4.84292811      -0.00000000
Si       3.42731590      -2.18769909       4.06601994
