8
Lattice="5.889610025707424 4.018273598442918e-08 -8.313636557846731e-16 -2.4686165700959903 5.347283280766124 -7.332556982439258e-08 -2.468616518681142 -2.1886246817144634 4.8788687972929" Properties=species:S:1:pos:R:3 unique_starting_index=63 config_type=initial n_minim_iter=1 pbc="T T T"
Si       1.27586379       0.18379489       4.28722738
Si      -0.43536847      -0.72151250       3.14163486
Si       0.36790471       4.41732420       0.62755127
Si       0.47259055       2.58086615       1.92244210
Si      -0.32348685       2.97486375       0.59164135
Si       1.38774541       3.88017114       1.73723388
Si       0.58447223      -1.25866556       4.25131747
Si       0.47978639       0.57779249       2.95642663
8
Lattice="5.929175552072316 0.027003493202033955 0.04170957244082485 -2.4606834482588003 5.394523971325059 -0.041709646784480546 -2.4606833961300856 -2.2460160069245148 4.904899685520483" Properties=species:S:1:pos:R:3 unique_starting_index=63 config_type=initial n_minim_iter=2 pbc="T T T"
Si       1.31771957       0.17375444       4.32686659
Si      -0.42208985      -0.74674500       3.16219062
Si       0.39456437       4.46732250       0.61294251
Si       0.50106529       2.60022692       1.92950537
Si      -0.30991085       3.00175701       0.57803303
Si       1.42989856       3.92225646       1.74270900
Si       0.61324434      -1.29181105       4.29195711
Si       0.50674342       0.57528454       2.97539425
8
Lattice="6.1173308416374494 0.16091328635188604 0.2485468319653281 -2.4179691926315083 5.621481535666792 -0.24854691125744052 -2.417969137033007 -2.5276275662845737 5.027318308797196" Properties=species:S:1:pos:R:3 unique_starting_index=63 config_type=initial n_minim_iter=3 pbc="T T T"
Si       1.52431289       0.12402244       4.51787657
Si      -0.35618554      -0.87134687       3.25930054
Si       0.52631007       4.70984014       0.53900234
Si       0.64181722       2.69194453       1.96230955
Si      -0.24292037       3.13074481       0.50944167
Si       1.63757806       4.12611412       1.76801770
Si       0.75508245      -1.45507289       4.48831590
Si       0.63957530       0.56282272       3.06500869
8
Lattice="6.114615571099353 0.19503954770114773 0.30125830497086953 -2.3858472450961026 5.633320236096198 -0.301258384893287 -2.385847189055639 -2.5805671281376115 5.016545331347357" Properties=species:S:1:pos:R:3 unique_starting_index=63 config_type=initial n_minim_iter=4 pbc="T T T"
Si       1.56406053       0.10831634       4.52803855
Si      -0.33320093      -0.89577453       3.25814543
Si       0.55723006       4.73118801       0.51624172
Si       0.67362948       2.69524117       1.95213854
Si      -0.22113939       3.13947632       0.48850671
Si       1.67612207       4.14356718       1.75839983
Si       0.78569108      -1.48339535       4.50030354
Si       0.66929166       0.55255149       3.06440672
8
Lattice="6.3508373713469535 0.8278962397685257 1.2787696706554768 -1.9102770706491392 6.113050692661411 -1.2787697658344428 -1.910277003911002 -3.668801907206508 5.054160039582734" Properties=species:S:1:pos:R:3 unique_starting_index=63 config_type=initial n_minim_iter=5 pbc="T T T"
Si       2.37216907      -0.17066519       4.93012449
Si       0.06445463      -1.38819612       3.38305282
Si       1.14923928       5.35049030       0.11807972
Si       1.28738436       2.87250099       1.86216779
Si       0.15811423       3.44281022       0.12403546
Si       2.46582867       4.66034115       1.67110713
Si       1.38104403      -2.07834527       4.93608023
Si       1.24289894       0.39964404       3.19199217
8
Lattice="6.943282643101488 1.071891212292359 1.6556446542936443 -1.937071719230248 6.753212378729894 -1.6556447615967667 -1.9370716439908247 -4.274679154116004 5.483990830561975" Properties=species:S:1:pos:R:3 unique_starting_index=63 config_type=initial n_minim_iter=6 pbc="T T T"
Si       2.84058461      -0.23577274       5.48823490
Si       0.12694749      -1.66274406       3.66597973
Si       1.40468690       6.02260828      -0.01661720
Si       1.56284513       3.10676645       2.03119624
Si       0.22855468       3.78619717      -0.00424417
Si       2.94219180       5.21316849       1.81801100
Si       1.66445239      -2.47218385       5.50060793
Si       1.50629416       0.44365798       3.45279450
8
Lattice="6.4817710153203985 1.003533672900825 1.5500595042663654 -1.8056932159876091 6.305545735835563 -1.5500596044934136 -1.8056931457098284 -3.9951146946511416 5.118754793363223" Properties=species:S:1:pos:R:3 unique_starting_index=63 config_type=initial n_minim_iter=7 pbc="T T T"
Si       2.65076731      -0.22402518       5.12394389
Si       0.12298181      -1.55051647       3.42471123
Si       1.31445959       5.62170644      -0.01297096
Si       1.45928947       2.90441234       1.89281167
Si       0.21961735       3.53798989      -0.00518918
Si       2.74740285       4.86448118       1.69404348
Si       1.55592507      -2.30774173       5.13172566
Si       1.41109519       0.40955237       3.22594303
8
Lattice="6.369006579304554 0.9963362704756403 1.5389423871874497 -1.76496291132968 6.200148094117235 -1.538942485870517 -1.7649628421345174 -3.941832528555139 5.027140034341714" Properties=species:S:1:pos:R:3 unique_starting_index=63 config_type=initial n_minim_iter=8 pbc="T T T"
Si       2.62580972      -0.22077305       5.04713685
Si       0.11686514      -1.53388845       3.35831072
Si       1.30104600       5.54291107      -0.02497702
Si       1.44162880       2.84440806       1.86434207
Si       0.21327111       3.47542488      -0.01999690
Si       2.72221569       4.78854028       1.66882922
Si       1.53803483      -2.28825924       5.05211696
Si       1.39745204       0.41024378       3.16279788
8
Lattice="6.358959270533172 1.0032326356187915 1.549594522936373 -1.7544902705018446 6.193916556615779 -1.5495946216285588 -1.754490201300287 -3.949001005361661 5.0170944882649575" Properties=species:S:1:pos:R:3 unique_starting_index=63 config_type=initial n_minim_iter=9 pbc="T T T"
Si       2.64183506      -0.21956317       5.05091447
Si       0.11092090      -1.54154784       3.34559806
Si       1.30666451       5.55252048      -0.03716871
Si       1.44609138       2.82928607       1.86699213
Si       0.20814374       3.46771135      -0.03382007
Si       2.73905790       4.78969603       1.67149634
Si       1.54331429      -2.30437230       5.05426311
Si       1.40388742       0.41886211       3.15010227
8
Lattice="6.299315383832435 0.9958812222229231 1.5382395197280574 -1.7361651522454675 6.13668346723154 -1.538239617534617 -1.736165083664898 -3.9152153774756333 4.969522500608941" Properties=species:S:1:pos:R:3 unique_starting_index=63 config_type=initial n_minim_iter=10 pbc="T T T"
Si       2.63426982      -0.21185479       5.01732796
Si       0.09451397      -1.53391970       3.30311605
Si       1.29649499       5.52038722      -0.04759653
Si       1.43228873       2.78573713       1.86027842
Si       0.19271534       3.42920411      -0.04780555
Si       2.73247118       4.75126901       1.66640637
Si       1.53049017      -2.30303791       5.01711894
Si       1.39469642       0.43161218       3.10924400
8
Lattice="6.264707657606646 0.9740578682705392 1.5045311357973383 -1.741473219344513 6.096115279470149 -1.504531232748342 -1.7414731513638457 -3.867855380442649 4.946304754426113" Properties=species:S:1:pos:R:3 unique_starting_index=63 config_type=initial n_minim_iter=11 pbc="T T T"
Si       2.62635267      -0.19173827       5.00687996
Si       0.05374469      -1.52288847       3.26530487
Si       1.27491238       5.51136348      -0.05300759
Si       1.40518492       2.73798045       1.87435643
Si       0.15540862       3.39405603      -0.06057529
Si       2.72801660       4.72520623       1.68099980
Si       1.50684892      -2.30904571       4.99931226
Si       1.37657637       0.46433732       3.07194823
8
Lattice="6.117004920206514 0.9043210247360315 1.396815507275185 -1.7428792917318845 5.932783261012126 -1.3968156010301893 -1.7428792259922044 -3.702724254631717 4.841368026574872" Properties=species:S:1:pos:R:3 unique_starting_index=63 config_type=initial n_minim_iter=12 pbc="T T T"
Si       2.52539030      -0.15874837       4.89023202
Si      -0.00010138      -1.45683767       3.17493271
Si       1.20264210       5.37307494      -0.02973177
Si       1.32264675       2.64684654       1.85671287
Si       0.10585611       3.29312840      -0.04886408
Si       2.63134779       4.59121770       1.66643524
Si       1.42860431      -2.23869491       4.87109971
Si       1.30859966       0.48753349       2.98465508
8
Lattice="6.2290716765271705 0.9222469646421426 1.424503938978083 -1.7735765328887105 6.042044308428529 -1.4245040344771605 -1.7735764659261086 -3.772707390281635 4.929725180382372" Properties=species:S:1:pos:R:3 unique_starting_index=63 config_type=initial n_minim_iter=13 pbc="T T T"
Si       2.57761916      -0.15960486       4.98512221
Si      -0.00532385      -1.48605412       3.23004501
Si       1.22531133       5.47891460      -0.03383163
Si       1.34698391       2.69017812       1.89476963
Si       0.10429953       3.35118874      -0.05539712
Si       2.68724253       4.67763800       1.69968009
Si       1.45660735      -2.28733072       4.96355672
Si       1.33493477       0.50140576       3.03495546
8
Lattice="6.195433163002671 0.9124189764765438 1.4093236144998462 -1.768400034368215 6.007383916219749 -1.4093237093888669 -1.7683999678333748 -3.7446704612941177 4.904314244247893" Properties=species:S:1:pos:R:3 unique_starting_index=63 config_type=initial n_minim_iter=14 pbc="T T T"
Si       2.55859835      -0.15602572       4.95863385
Si      -0.01068706      -1.47403327       3.21191231
Si       1.21408924       5.44829233      -0.03028543
Si       1.33382199       2.67370306       1.88719365
Si       0.10003481       3.33115815      -0.05431969
Si       2.66932023       4.64916570       1.69240184
Si       1.44454393      -2.27315990       4.93459959
Si       1.32481118       0.50142937       3.01712051
