12
Lattice="7.0002701135962555 3.753111695950813 -2.358019507087206 5.5480515146376055 7.772848531671032 -2.747207782489793 1.188277250675034 -0.3674274770818752 2.41546357705842" Properties=species:S:1:pos:R:3 unique_starting_index=78 config_type=initial n_minim_iter=1 energy=-2279.863310195704 free_energy=-2279.863310195704 pbc="T T T"
Si       2.89227936       3.19745185       0.26355251
Si       7.60602578       4.98958177      -1.26090277
Si      12.62283626      11.21207982      -3.14527578
Si       5.76854249       3.95148404      -0.81040907
Si       6.91935090       7.47708125      -2.00636773
Si       8.05839509       7.90713167      -1.15691574
Si       6.92267046       4.34017810      -2.30050454
Si       8.57380172       6.49861292      -1.06120435
Si       5.25390715       2.37884484      -1.79835830
Si       8.46179162       6.11901667      -2.77868242
Si       4.87738319       4.89320814      -1.22712247
Si       6.55548865       6.09324834      -0.29455778
12
Lattice="6.677305019800707 3.6011245460847405 -2.286250310108719 5.183713858310006 7.624419207147778 -2.7205620622011053 1.1833206123704856 -0.4106227521260611 2.397549152941288" Properties=species:S:1:pos:R:3 unique_starting_index=78 config_type=initial n_minim_iter=2 stress="-1.42757834880973 0.10852299577771814 17.764403347202823 0.10852299577771814 19.81475191153937 -13.659324748021845 17.764403347202823 -13.659324748021845 -12.50619582208147" pbc="T T T"
Si       2.74338313       3.11398156       0.26000100
Si       7.24244687       4.80831645      -1.21084192
Si      11.93948709      10.91137278      -3.06859565
Si       5.50180756       3.80888209      -0.77696210
Si       6.53835477       7.27543916      -1.98114273
Si       7.60896724       7.69779206      -1.12733417
Si       6.61484984       4.16803253      -2.24340481
Si       8.15095251       6.29009328      -0.99206141
Si       5.03151166       2.27174021      -1.74403755
Si       8.03088867       5.91823864      -2.71569244
Si       4.61139482       4.77144975      -1.20630632
Si       6.22036607       5.91461561      -0.26446179
12
Lattice="6.4835250490494865 3.3618002543474628 -2.344911583097168 4.9643204599915745 7.290326087765722 -2.7271454763926384 1.1323614710299457 -0.39763164397474293 2.3873938104292867" Properties=species:S:1:pos:R:3 unique_starting_index=78 config_type=initial n_minim_iter=3 stress="-10.956574073798539 -16.755272552724684 -8.597201164555612 -16.755272552724684 -53.74746110682331 33.28671638981389 -8.597201164555612 33.28671638981389 16.708535714346343" pbc="T T T"
Si       2.62754299       2.98295227       0.26125151
Si       6.99785823       4.51763124      -1.26766316
Si      11.47344666      10.38056555      -3.11813846
Si       5.32379348       3.59420248      -0.82054053
Si       6.30100940       6.90638798      -2.02143594
Si       7.29087495       7.34496334      -1.16783607
Si       6.43597474       3.89010356      -2.29879510
Si       7.86349018       5.97980444      -1.01163636
Si       4.90490061       2.11150023      -1.79173744
Si       7.75206814       5.57295959      -2.79208746
Si       4.43845375       4.54885845      -1.23398902
Si       5.97545213       5.65136808      -0.27169432
12
Lattice="6.474651588014051 3.435002650203218 -2.4412761394982168 4.973092732421587 7.405096913216123 -2.85112162279643 1.1033179628449175 -0.4247284485234941 2.3726339847802826" Properties=species:S:1:pos:R:3 unique_starting_index=78 config_type=initial n_minim_iter=4 stress="2.630218429547077 -48.994576743965354 -14.242848015112672 -48.994576743965354 -5.078465796701879 0.003939363499088851 -14.242848015112672 0.003939363499088851 70.09054551740199" pbc="T T T"
Si       2.61700488       3.02047952       0.21546198
Si       6.97584370       4.58298176      -1.39870202
Si      11.42148972      10.55711391      -3.32542187
Si       5.31834552       3.64830067      -0.92133456
Si       6.31501859       6.98664081      -2.15836706
Si       7.25758841       7.45813045      -1.33966293
Si       6.43998502       3.95589041      -2.40352218
Si       7.84864854       6.09171113      -1.13733481
Si       4.90599549       2.16531869      -1.85238458
Si       7.72094612       5.66569256      -2.94169528
Si       4.43704548       4.62328508      -1.33738383
Si       5.95776629       5.73034988      -0.38137900
12
Lattice="6.466165414747044 3.6527904026996225 -2.4818250195575353 5.0885678048760195 7.621600532325506 -2.908893291163724 1.0433935103021212 -0.4303311499531341 2.265567251971948" Properties=species:S:1:pos:R:3 unique_starting_index=78 config_type=initial n_minim_iter=5 stress="16.317566355266713 -22.04973994855089 -21.528895782894796 -22.04973994855089 -9.65888448831047 -34.45241983026323 -21.528895782894796 -34.45241983026323 41.95699957734413" pbc="T T T"
Si       2.64165434       3.11536720       0.15855797
Si       6.96666019       4.78101216      -1.52728153
Si      11.43332302      10.98454357      -3.46525759
Si       5.34079920       3.81700681      -1.02958187
Si       6.42569190       7.17807063      -2.25964253
Si       7.28299764       7.72834345      -1.52553975
Si       6.46840828       4.15337976      -2.46189745
Si       7.88114602       6.39981930      -1.25078691
Si       4.90777129       2.33216600      -1.86355178
Si       7.69789477       5.91533972      -3.04264345
Si       4.49088057       4.79734161      -1.43469000
Si       5.99028910       5.93677022      -0.50694270
12
Lattice="6.421336912805654 3.7334163604111033 -2.4467807653169658 5.0925699489769025 7.7231919833164575 -2.8547836956566295 1.022376862630426 -0.41819104674076546 2.2217532439230308" Properties=species:S:1:pos:R:3 unique_starting_index=78 config_type=initial n_minim_iter=6 stress="11.967234836827622 -32.668284636187074 5.165787435430417 -32.668284636187074 29.915360338495276 -22.87564175734564 5.165787435430417 -22.87564175734564 0.5378445233060662" pbc="T T T"
Si       2.63104486       3.16819553       0.17300533
Si       6.92009685       4.86797110      -1.51861852
Si      11.35920672      11.18148381      -3.39656230
Si       5.32027143       3.89704900      -1.02193316
Si       6.43513496       7.26288245      -2.22744155
Si       7.24423063       7.85657609      -1.51562166
Si       6.43270544       4.23500640      -2.42361490
Si       7.84809071       6.54332823      -1.22349152
Si       4.87867111       2.38997884      -1.83062267
Si       7.63386796       6.01816866      -3.00846304
Si       4.48459719       4.87627398      -1.42818537
Si       5.96432810       6.03889786      -0.49049114
12
Lattice="6.403200788874608 3.830647833443629 -2.4752379183983475 5.143263617998923 7.803979198836636 -2.8866961777539264 0.9919933542625204 -0.41199895201138 2.194849451505163" Properties=species:S:1:pos:R:3 unique_starting_index=78 config_type=initial n_minim_iter=7 stress="-11.87488417890687 -2.802582460000804 16.249941946511964 -2.802582460000804 23.113929546743748 -47.88021385757821 16.249941946511964 -47.88021385757821 -28.865267662415697" pbc="T T T"
Si       2.63631121       3.20585387       0.15606636
Si       6.90181281       4.96145724      -1.57533885
Si      11.35669362      11.36181360      -3.46890368
Si       5.31951103       3.97888864      -1.05471505
Si       6.48785413       7.33594008      -2.27758739
Si       7.24884844       7.96262713      -1.58576312
Si       6.42555772       4.32876895      -2.45038977
Si       7.84518130       6.67574527      -1.27161910
Si       4.86742161       2.46203063      -1.84384997
Si       7.61249438       6.13187859      -3.05567671
Si       4.50660625       4.94654479      -1.47656408
Si       5.96780262       6.12136473      -0.53671894
12
Lattice="6.468213251524283 3.8969971612445073 -2.4767754170827945 5.229450187029812 7.899948875055167 -2.851550335234875 0.9748988464928251 -0.39723696108940365 2.1467483807098913" Properties=species:S:1:pos:R:3 unique_starting_index=78 config_type=initial n_minim_iter=8 stress="-6.725365473314376 18.777562782524512 2.4432310112959588 18.777562782524512 90.86242610446767 -34.57653480229619 2.4432310112959588 -34.57653480229619 -30.979410162688886" pbc="T T T"
Si       2.66156718       3.25840617       0.15731066
Si       6.96335761       5.03296235      -1.61042459
Si      11.47228854      11.53293267      -3.48139955
Si       5.37823765       4.05606504      -1.05749490
Si       6.60231877       7.42027851      -2.27084110
Si       7.30828289       8.07824930      -1.59985097
Si       6.50095072       4.39521293      -2.45192772
Si       7.92963818       6.81189626      -1.27268723
Si       4.92831655       2.50505396      -1.84041484
Si       7.67655391       6.22280713      -3.05714538
Si       4.56569258       5.03709629      -1.48135244
Si       6.02445275       6.21053487      -0.54633447
12
Lattice="6.5261465870911195 3.8815452388302747 -2.441927945818277 5.280036326670534 7.85520069511201 -2.817371953632398 0.9846037533946714 -0.3973744889784325 2.108042038084282" Properties=species:S:1:pos:R:3 unique_starting_index=78 config_type=initial n_minim_iter=9 stress="-11.144279434000731 26.145445080592452 27.467713710392033 26.145445080592452 55.29727676958732 -81.75486938626315 27.467713710392033 -81.75486938626315 -76.43674561205543" pbc="T T T"
Si       2.68059226       3.23709933       0.16718717
Si       7.02258800       5.00164283      -1.61920714
Si      11.56676646      11.46614153      -3.46067992
Si       5.43490902       4.04460711      -1.04023584
Si       6.68973314       7.36664187      -2.25258700
Si       7.35331074       8.02972122      -1.59954395
Si       6.55957075       4.36709604      -2.40783886
Si       8.02298720       6.79785017      -1.24579869
Si       4.98727873       2.49633091      -1.80129623
Si       7.72456743       6.18606938      -3.02620273
Si       4.61507798       5.02904105      -1.47893434
Si       6.08172259       6.16684634      -0.54465710
12
Lattice="6.50798525897312 3.9746563581505456 -2.3940313951082564 5.332574445982049 7.939582998188377 -2.735489522967635 0.9635971021357318 -0.36659890322641386 2.069260289720344" Properties=species:S:1:pos:R:3 unique_starting_index=78 config_type=initial n_minim_iter=10 stress="-72.42931526704639 85.00920551001062 26.389474348635073 85.00920551001062 93.32267020409508 -95.62834509736302 26.389474348635073 -95.62834509736302 -79.12545038677746" pbc="T T T"
Si       2.67760195       3.28589350       0.21953958
Si       7.00469227       5.11572163      -1.62836625
Si      11.57724345      11.64425689      -3.39921118
Si       5.43700588       4.14959975      -1.00419045
Si       6.74157791       7.46408031      -2.19663576
Si       7.32792366       8.14498773      -1.56063788
Si       6.55731441       4.44291503      -2.33292841
Si       8.06022284       6.97711347      -1.15721682
Si       4.99419109       2.57104714      -1.73800069
Si       7.69431281       6.27927953      -2.98196095
Si       4.65685517       5.13296627      -1.45425089
Si       6.09951074       6.25723986      -0.49869451
12
Lattice="6.527269494081872 3.987070683136193 -2.3741480552457763 5.370594531588641 7.928687180342806 -2.703090844399685 0.9604989323333447 -0.3542400795926764 2.051582269323734" Properties=species:S:1:pos:R:3 unique_starting_index=78 config_type=initial n_minim_iter=11 stress="-83.98814397015856 90.89267170515444 22.26503611666578 90.89267170515444 96.45775150564283 -106.31955104492273 22.26503611666578 -106.31955104492273 -141.27443837136246" pbc="T T T"
Si       2.68372875       3.28411794       0.24362533
Si       7.02439653       5.13155869      -1.62947866
Si      11.62552659      11.64691747      -3.38067844
Si       5.45370325       4.16591487      -0.99085041
Si       6.78961540       7.45412646      -2.17249782
Si       7.34068617       8.13746911      -1.55156179
Si       6.58134280       4.45452950      -2.31003926
Si       8.10711876       7.01138633      -1.11794793
Si       5.01649573       2.59300935      -1.71258490
Si       7.70948881       6.27687219      -2.96768277
Si       4.70256901       5.13854297      -1.44103681
Si       6.12978702       6.25213499      -0.48114624
12
Lattice="6.561666027238345 4.030093776830902 -2.302623301239808 5.4464630375317356 7.923703153194595 -2.625211057613432 0.9803165154563774 -0.32445012974338494 2.073932913439993" Properties=species:S:1:pos:R:3 unique_starting_index=78 config_type=initial n_minim_iter=12 stress="-48.20391150789803 68.27915660810484 41.05036280695303 68.27915660810484 146.04526384639206 -74.4084830831187 41.05036280695303 -74.4084830831187 -51.11857567750486" pbc="T T T"
Si       2.72107716       3.29405340       0.32084579
Si       7.06873254       5.18357502      -1.56504137
Si      11.74163553      11.68161385      -3.24553138
Si       5.50012067       4.21520388      -0.92107083
Si       6.88500005       7.45572109      -2.08242256
Si       7.40420403       8.15315784      -1.45139838
Si       6.62966243       4.49314447      -2.24207456
Si       8.21741193       7.09046877      -0.97822858
Si       5.05347723       2.64047981      -1.64579856
Si       7.73846154       6.30630050      -2.89349605
Si       4.78744412       5.16925545      -1.37486975
Si       6.21291074       6.27241719      -0.37960667
12
Lattice="6.556396032314114 4.045532464544812 -2.3044672794137533 5.479453116352313 7.895421816100886 -2.612926902751389 0.965108413850268 -0.30718638284967914 2.0632124026777725" Properties=species:S:1:pos:R:3 unique_starting_index=78 config_type=initial n_minim_iter=13 stress="-66.41998101039786 61.9404649742346 63.30415102249904 61.9404649742346 117.87851321140081 -77.38778013731017 63.30415102249904 -77.38778013731017 -143.21713974433143" pbc="T T T"
Si       2.71404054       3.28541237       0.35289847
Si       7.05256488       5.20446915      -1.59294599
Si      11.76000618      11.66054188      -3.26049074
Si       5.49235774       4.23898365      -0.93040308
Si       6.91545715       7.42078774      -2.08203546
Si       7.39423241       8.12972013      -1.44682952
Si       6.63387610       4.50473401      -2.25282074
Si       8.24516080       7.12223132      -0.96791698
Si       5.05955195       2.66152584      -1.63348362
Si       7.71719772       6.30863505      -2.90517964
Si       4.82966072       5.18025555      -1.36733025
Si       6.22852751       6.25962810      -0.36998595
12
Lattice="6.604738002917597 4.052016044797543 -2.3469106282698373 5.579165995297841 7.812217009298932 -2.6339022067142404 0.9413150939155004 -0.280235269748307 2.0556000043388223" Properties=species:S:1:pos:R:3 unique_starting_index=78 config_type=initial n_minim_iter=14 stress="-59.40341032906723 73.57212038170111 103.17514184087808 73.57212038170111 30.632077153663435 -44.19869042830777 103.17514184087808 -44.19869042830777 -160.84765933595347" pbc="T T T"
Si       2.71673245       3.25823387       0.40232336
Si       7.06320526       5.21245991      -1.65750248
Si      11.88490378      11.59052565      -3.35381607
Si       5.52097399       4.26699788      -0.97058475
Si       7.01281097       7.33185944      -2.12297362
Si       7.42671255       8.03392353      -1.47303777
Si       6.69961740       4.50839247      -2.32575952
Si       8.36748930       7.14294295      -0.98569908
Si       5.13540641       2.66869956      -1.62806682
Si       7.74626263       6.27049172      -2.98127733
Si       4.93713397       5.17660676      -1.40154979
Si       6.30802904       6.19943456      -0.39532801
12
Lattice="6.679759041507774 4.172343847663468 -2.590979904135251 5.837623192893279 7.736682001354686 -2.844350216595198 0.8270432787181975 -0.23228047032437263 2.023646299016231" Properties=species:S:1:pos:R:3 unique_starting_index=78 config_type=initial n_minim_iter=15 stress="-237.81038836208285 17.450793907620685 158.2794793126901 17.450793907620685 -50.774766350501814 -14.060768192822936 158.2794793126901 -14.060768192822936 -72.7702329467591" pbc="T T T"
Si       2.66675235       3.24681121       0.51020712
Si       6.96451038       5.33047918      -1.99716981
Si      12.17819582      11.62333644      -3.90110387
Si       5.54949210       4.49006956      -1.22836984
Si       7.23760231       7.19463293      -2.41422128
Si       7.39431171       7.82226771      -1.72606282
Si       6.80689726       4.61553187      -2.65962245
Si       8.65118153       7.39477031      -1.16567532
Si       5.34613905       2.75431098      -1.70727279
Si       7.72111958       6.28334688      -3.36075192
Si       5.24207340       5.28429851      -1.59736944
Si       6.45743698       6.17983566      -0.64238869
12
Lattice="6.697871192050145 4.182084090133608 -2.610215890393713 5.87029924941038 7.728309898738186 -2.857803048122947 0.8184854194428496 -0.22630401753127047 2.0198479287424385" Properties=species:S:1:pos:R:3 unique_starting_index=78 config_type=initial n_minim_iter=16 stress="-299.0067797583209 24.082324185316786 123.36336114609065 24.082324185316786 -70.79608891378432 18.305827035473683 123.36336114609065 18.305827035473683 -75.71111532515918" pbc="T T T"
Si       2.66683662       3.24647009       0.52006155
Si       6.97000600       5.34169340      -2.02361939
Si      12.22586145      11.62619328      -3.94146950
Si       5.56235947       4.50762529      -1.24893919
Si       7.26893535       7.18171984      -2.43543360
Si       7.40475041       7.80410131      -1.74358472
Si       6.82828104       4.62318804      -2.68541283
Si       8.68949627       7.41630309      -1.17861447
Si       5.37245230       2.76278635      -1.71498512
Si       7.73324352       6.28249033      -3.38906637
Si       5.27614854       5.29315621      -1.61160063
Si       6.48153634       6.17744098      -0.66140996
12
Lattice="6.9035212706917735 4.291897141693272 -2.6316739454489406 6.106582959266578 7.818423293305711 -2.883762017070547 0.8287211979399077 -0.21620494860572714 2.001767637629207" Properties=species:S:1:pos:R:3 unique_starting_index=78 config_type=initial n_minim_iter=17 stress="-218.0434566934661 95.64243797818426 56.661858238232334 95.64243797818426 3.664714726971408 91.89450800553148 56.661858238232334 91.89450800553148 59.392447147541795" pbc="T T T"
Si       2.73921231       3.28296956       0.55008442
Si       7.18261087       5.46935319      -2.06117520
Si      12.67059072      11.82489239      -4.02933878
Si       5.72394619       4.61835506      -1.28886517
Si       7.52557894       7.24131822      -2.48888893
Si       7.61213485       7.86336138      -1.76585965
Si       7.06685581       4.73163873      -2.71797438
Si       9.00993740       7.59352976      -1.20424455
Si       5.57203069       2.84586441      -1.70592802
Si       7.95403205       6.40242103      -3.44455317
Si       5.49512575       5.39065327      -1.64630568
Si       6.71935334       6.29408652      -0.70883437
12
Lattice="6.996616293818866 4.344310701138315 -2.6451960108463113 6.217548981305228 7.856959225691263 -2.900566279953398 0.8314935655799971 -0.21151500686928412 1.992567856973052" Properties=species:S:1:pos:R:3 unique_starting_index=78 config_type=initial n_minim_iter=18 stress="-223.68733227371138 102.82193693086174 25.49142999772699 102.82193693086174 -22.45276597010798 124.66023199129879 25.49142999772699 124.66023199129879 91.50449964226384" pbc="T T T"
Si       2.77011995       3.29791417       0.56490073
Si       7.27995889       5.53253469      -2.07861110
Si      12.87739662      11.91233841      -4.08315073
Si       5.79922138       4.66923921      -1.31329383
Si       7.64202671       7.26200061      -2.51872199
Si       7.70525759       7.88375676      -1.78450103
Si       7.17674008       4.78514127      -2.73716059
Si       9.15795653       7.67698794      -1.22125892
Si       5.66512674       2.88485757      -1.70201048
Si       8.04999388       6.45598796      -3.47684631
Si       5.59746176       5.43993314      -1.66716919
Si       6.82771455       6.34765806      -0.73479024
12
Lattice="7.122344004470323 4.409362082354826 -2.671368746195427 6.358678164057829 7.911771582374347 -2.935095677759367 0.8366843949251607 -0.21000491331455104 1.9839701048573926" Properties=species:S:1:pos:R:3 unique_starting_index=78 config_type=initial n_minim_iter=19 stress="-106.74822619146794 93.42139184674961 45.934450944866335 93.42139184674961 35.45773575622121 67.90815014350186 45.934450944866335 67.90815014350186 196.36977250787146" pbc="T T T"
Si       2.80933401       3.31617108       0.57028532
Si       7.40993902       5.60623032      -2.11600149
Si      13.14627700      12.02844336      -4.16152274
Si       5.89780709       4.72411530      -1.35679741
Si       7.79984706       7.30936804      -2.57043205
Si       7.84309094       7.91394296      -1.81899747
Si       7.32137952       4.85562585      -2.76973493
Si       9.33795805       7.76590270      -1.25123337
Si       5.79021835       2.93664061      -1.70758052
Si       8.18510770       6.52617381      -3.52782738
Si       5.72984591       5.50621278      -1.70634715
Si       6.95812683       6.40974209      -0.76139844
12
Lattice="7.2696271931886915 4.525926063050954 -2.707101328412023 6.541319999539025 8.025040736583788 -2.985001856306174 0.8385251198536577 -0.2081759037446493 1.9728914630712775" Properties=species:S:1:pos:R:3 unique_starting_index=78 config_type=initial n_minim_iter=20 stress="-75.14227790834077 31.196636165372237 59.80042452599783 31.196636165372237 65.76224150619485 19.854117455294816 59.80042452599783 19.854117455294816 294.25190261395517" pbc="T T T"
Si       2.84469013       3.35133988       0.58899040
Si       7.58697290       5.74389029      -2.17139527
Si      13.47653832      12.25673336      -4.27367414
Si       6.00504067       4.82239342      -1.41458788
Si       7.99725338       7.41448635      -2.65350170
Si       8.01376927       7.97925925      -1.86492347
Si       7.48123388       4.97254125      -2.82230218
Si       9.55277980       7.92323315      -1.27503140
Si       5.95175375       3.03058620      -1.71289816
Si       8.32451175       6.66260641      -3.60061694
Si       5.90525424       5.63964261      -1.76111110
Si       7.13925392       6.53381909      -0.80995023
12
Lattice="7.38163034078519 4.597000643541013 -2.727622089372919 6.671378080920234 8.090713014595753 -3.016091031112028 0.8436787580928813 -0.20762448419362098 1.9647225361994916" Properties=species:S:1:pos:R:3 unique_starting_index=78 config_type=initial n_minim_iter=21 stress="-22.843497678824797 40.63540640533291 38.58351276773873 40.63540640533291 73.49569804312591 31.69149141332866 38.58351276773873 31.69149141332866 323.44966194203056" pbc="T T T"
Si       2.87616277       3.36859054       0.60041107
Si       7.71254580       5.82166010      -2.20147252
Si      13.71148984      12.39141681      -4.34399298
Si       6.09370939       4.88607704      -1.45280707
Si       8.13954005       7.47714366      -2.70855764
Si       8.14855905       8.01862998      -1.89940266
Si       7.60400918       5.04315236      -2.84888251
Si       9.70914836       8.01506591      -1.29277094
Si       6.06703021       3.08833147      -1.71603713
Si       8.44166508       6.75048315      -3.64220283
Si       6.02774831       5.71712286      -1.78842742
Si       7.27378753       6.60182137      -0.84307354
