22
Lattice="5.028165444647075 -1.5593297970228162 0.3292290534012538 -3.210154083773158 7.9658829812632845 -3.6999473968246606 0.8784283886983246 -6.693631411561697 16.430865301422653" Properties=species:S:1:pos:R:3 unique_starting_index=51 config_type=initial n_minim_iter=1 energy=-3584.4836129238697 free_energy=-3584.4836129238697 pbc="T T T"
Si       1.64336157       4.16958451       0.53747049
Si       1.25732586      -0.55190367       8.71996450
Si      -0.33727385       5.62690903      -2.25590333
Si      -0.85968539       4.24917765       2.93394622
Si       1.11362466       0.23907767       6.46899171
Si       4.13168093      -2.34774964       5.91907389
Si      -0.02055391      -0.14281414       0.48952926
Si      -0.64354011       1.14743435      -1.31402535
Si       1.34093380      -2.93692400       8.60888007
Si       3.90189284      -2.40712349      12.83910159
Si      -0.66599261      -0.30267313      10.16932568
Si       2.90684158      -0.56777209       5.06343429
Si      -0.29051436       2.17294403       3.80397808
Si       3.86858051      -5.27069178      15.64991199
Si       2.64366210      -4.31345686      13.74509680
Si       1.03322348       2.50944686       5.69707868
Si       0.98669101       0.85955919       2.32691922
Si       3.21337698       0.11570175       9.87251098
Si       2.88116748      -3.70197390      10.25656455
Si       1.76195328      -1.18472886       3.14612256
Si       2.63996509       2.24991823       1.44725567
Si       3.46782481      -4.37778301       2.42635649
22
Lattice="5.03629281419796 -1.5557749960543792 0.3288808477538447 -3.2111977672964733 7.960370749540645 -3.699437755245437 0.8747600790632541 -6.692417075236336 16.424674727441143" Properties=species:S:1:pos:R:3 unique_starting_index=51 config_type=initial n_minim_iter=2 stress="0.0006592330152656552 0.00045372710476053696 -7.553131802067511e-06 0.00045372710476053696 -3.626743493307324e-05 4.171545930913583e-05 -7.553131802067511e-06 4.171545930913583e-05 0.00020956067775272774" pbc="T T T"
Si       1.64837421       4.16822413       0.53630488
Si       1.25864157      -0.55296127       8.71597236
Si      -0.33434234       5.62402381      -2.25602972
Si      -0.85880906       4.24569849       2.93209189
Si       1.11494702       0.23852067       6.46616542
Si       4.13708491      -2.34529761       5.91664407
Si      -0.02100492      -0.14291015       0.48909607
Si      -0.64458455       1.14612091      -1.31363393
Si       1.34084871      -2.93638297       8.60582730
Si       3.90611286      -2.40614699      12.83339657
Si      -0.66815198      -0.30449403      10.16471594
Si       2.91098029      -0.56659244       5.06120308
Si      -0.29034269       2.17070349       3.80212425
Si       3.87091910      -5.26871873      15.64345889
Si       2.64495862      -4.31207158      13.73926632
Si       1.03587012       2.50779079       5.69470018
Si       0.98882355       0.85945949       2.32555116
Si       3.21843571       0.11569045       9.86762256
Si       2.88372188      -3.70018560      10.25207868
Si       1.76417673      -1.18301831       3.14472046
Si       2.64566768       2.24975696       1.44598171
Si       3.47187473      -4.37376786       2.42531505
22
Lattice="5.043597900937578 -1.560583462161837 0.3280581515029276 -3.2244191714398154 7.956295648380679 -3.695140500021295 0.8807601676172275 -6.697480519141923 16.38525070733768" Properties=species:S:1:pos:R:3 unique_starting_index=51 config_type=initial n_minim_iter=3 stress="7.678196285533656e-06 -0.0003981198376000529 -0.00012801978857434606 -0.0003981198376000529 -0.0014922952297793737 -0.0002629381934462271 -0.00012801978857434606 -0.0002629381934462271 -0.0018562134766824795" pbc="T T T"
Si       1.64379208       4.16066802       0.53073579
Si       1.25978011      -0.56336963       8.69221441
Si      -0.34015615       5.61851498      -2.25544222
Si      -0.86397533       4.23791403       2.92139810
Si       1.11311503       0.23197722       6.44912347
Si       4.14232516      -2.35252222       5.90272274
Si      -0.02291444      -0.14358222       0.48679101
Si      -0.64999566       1.14341939      -1.31122569
Si       1.34360105      -2.94268913       8.58665147
Si       3.90921228      -2.41951188      12.79931090
Si      -0.66984892      -0.31045644      10.13624838
Si       2.91219841      -0.57260445       5.04828665
Si      -0.29531764       2.16365831       3.79138435
Si       3.87752401      -5.28041038      15.60383862
Si       2.65162776      -4.32049276      13.70340961
Si       1.03231780       2.49935156       5.68065733
Si       0.98889138       0.85665450       2.31769787
Si       3.22010326       0.10364119       9.83886686
Si       2.89158782      -3.70683935      10.22493337
Si       1.76670169      -1.18290952       3.13667291
Si       2.64431753       2.24113587       1.43997595
Si       3.48314498      -4.37367323       2.41923953
22
Lattice="5.052337455984561 -1.5691448641006476 0.32901512578977193 -3.2378239943785094 7.975630983689134 -3.7019545003321648 0.8891071719709905 -6.719344415953838 16.399358554512265" Properties=species:S:1:pos:R:3 unique_starting_index=51 config_type=initial n_minim_iter=4 stress="0.0015901714838057136 -0.0015495636029456126 0.00015237717499247587 -0.0015495636029456126 0.0007787137861480428 -0.0003034674603883097 0.00015237717499247587 -0.0003034674603883097 0.00014004262516103774" pbc="T T T"
Si       1.64060730       4.16738529       0.52811757
Si       1.26386819      -0.57462216       8.69778373
Si      -0.34435159       5.63023417      -2.26185240
Si      -0.86644264       4.24361273       2.92178019
Si       1.11227958       0.22841357       6.45471197
Si       4.14904117      -2.36464264       5.90987430
Si      -0.02611671      -0.14509403       0.48535211
Si      -0.65824468       1.14196247      -1.31346069
Si       1.34754271      -2.95709847       8.59738699
Si       3.91502129      -2.43718123      12.80821409
Si      -0.66886845      -0.31417202      10.14062140
Si       2.91452725      -0.57766670       5.05386707
Si      -0.29970634       2.16347368       3.79475064
Si       3.88728962      -5.30492525      15.61566953
Si       2.66214264      -4.33837722      13.71202909
Si       1.03103404       2.50121566       5.68915895
Si       0.99040443       0.85854153       2.31778133
Si       3.22554537       0.09529283       9.84298893
Si       2.90337708      -3.72170889      10.23088068
Si       1.76996122      -1.18321090       3.13907158
Si       2.64417964       2.24024430       1.44024990
Si       3.49653344      -4.38583773       2.41931803
22
Lattice="5.037025982016461 -1.5579522979274845 0.326935129898367 -3.2103786791852067 7.970455089764437 -3.70214820325217 0.8641753696197126 -6.720096139548997 16.40435192857569" Properties=species:S:1:pos:R:3 unique_starting_index=51 config_type=initial n_minim_iter=5 stress="-9.999429458228098e-05 3.531360757288653e-05 0.0003174981693653173 3.531360757288653e-05 -0.0004123717810281292 9.228433315524945e-05 0.0003174981693653173 9.228433315524945e-05 0.00039715756292296484" pbc="T T T"
Si       1.64558650       4.17475723       0.52657817
Si       1.25864942      -0.57818584       8.69972308
Si      -0.32607554       5.63173967      -2.26526032
Si      -0.85077451       4.24096837       2.92445637
Si       1.10446262       0.23215376       6.45874745
Si       4.12900300      -2.35565320       5.91312412
Si      -0.03132481      -0.14689794       0.48278683
Si      -0.66290337       1.13358643      -1.31505093
Si       1.33234657      -2.95982893       8.60507641
Si       3.89173135      -2.43217191      12.80975081
Si      -0.66976293      -0.31335648      10.14057595
Si       2.90114626      -0.56844002       5.05780271
Si      -0.29769200       2.16021840       3.79929119
Si       3.85785638      -5.30163936      15.61751240
Si       2.64336402      -4.33371559      13.71172371
Si       1.03231863       2.50671311       5.69983316
Si       0.99057927       0.86509907       2.31686473
Si       3.21608351       0.10305320       9.84164787
Si       2.88936423      -3.71553119      10.22928844
Si       1.76100156      -1.17153384       3.13871324
Si       2.64094668       2.24601687       1.44034280
Si       3.48248406      -4.37826870       2.41278078
22
Lattice="5.034978949779825 -1.5584866508108426 0.32046869041912673 -3.201334544324604 7.984107563748116 -3.695910948811048 0.8394498874218113 -6.737127117068873 16.383990112059976" Properties=species:S:1:pos:R:3 unique_starting_index=51 config_type=initial n_minim_iter=6 stress="-9.801869382188888e-05 0.00023480089656272794 -0.0007080139447116221 0.00023480089656272794 0.0007552836594922258 -4.80113868299547e-05 -0.0007080139447116221 -4.80113868299547e-05 -0.0003722590560255055" pbc="T T T"
Si       1.64702023       4.18334002       0.52200596
Si       1.24758437      -0.58330650       8.68675279
Si      -0.32070791       5.64250274      -2.26403933
Si      -0.85176303       4.24595156       2.92119182
Si       1.09489763       0.23124551       6.44985410
Si       4.11864341      -2.35919757       5.90149960
Si      -0.03240174      -0.14775662       0.48176663
Si      -0.66363925       1.13344761      -1.31414633
Si       1.31935421      -2.96885227       8.59421958
Si       3.87238800      -2.43986316      12.78797149
Si      -0.68197457      -0.31684812      10.12726916
Si       2.89300467      -0.56919808       5.04906067
Si      -0.30176850       2.16196191       3.79540148
Si       3.83467523      -5.31531096      15.59327260
Si       2.62402486      -4.34504951      13.69059173
Si       1.02590329       2.50944380       5.69246281
Si       0.98735185       0.86727695       2.31165288
Si       3.20322497       0.10159228       9.82370744
Si       2.87547125      -3.72305541      10.21301896
Si       1.75575575      -1.17231194       3.13216534
Si       2.63962197       2.25129670       1.43419098
Si       3.47725961      -4.38510631       2.40471814
22
Lattice="5.038405481324846 -1.5636025670263984 0.3286091174530514 -3.205115045437335 8.023222785335484 -3.701588213149522 0.8557396154352374 -6.809860543176896 16.310137073681762" Properties=species:S:1:pos:R:3 unique_starting_index=51 config_type=initial n_minim_iter=7 stress="6.356600212209018e-05 0.0006248691201778047 0.001609895376324278 0.0006248691201778047 0.0013859610028804092 -0.0011035338306146984 0.001609895376324278 -0.0011035338306146984 -0.0010680458947918113" pbc="T T T"
Si       1.66170515       4.20862831       0.50587413
Si       1.26760561      -0.63255932       8.63897230
Si      -0.32881860       5.67473321      -2.26660657
Si      -0.84051388       4.23786384       2.90651212
Si       1.08991181       0.22015163       6.42925326
Si       4.11612095      -2.37202231       5.88707327
Si      -0.03311723      -0.15616050       0.47420995
Si      -0.70717105       1.11176640      -1.33235322
Si       1.32750509      -3.02302880       8.56688930
Si       3.87790564      -2.49454495      12.71390178
Si      -0.65549838      -0.33593908      10.05728725
Si       2.89307370      -0.57658362       5.04702585
Si      -0.29776188       2.15331608       3.78732297
Si       3.86342968      -5.38778495      15.51664460
Si       2.65292114      -4.40437461      13.61133860
Si       1.03634440       2.49636916       5.68310267
Si       0.98271594       0.87729169       2.28920309
Si       3.22450209       0.07951369       9.76218348
Si       2.91150264      -3.74574679      10.16901314
Si       1.75498042      -1.16997217       3.11023159
Si       2.64540750       2.26961117       1.42078087
Si       3.48193897      -4.40785093       2.38146293
22
Lattice="5.041798954006903 -1.5660077428292207 0.3156139381122363 -3.2054288621191542 8.013643999423154 -3.687403569829099 0.8242224469623832 -6.788048235738477 16.304197014949317" Properties=species:S:1:pos:R:3 unique_starting_index=51 config_type=initial n_minim_iter=8 stress="0.000476258618811428 -7.644315676095464e-05 5.0660437789126104e-05 -7.644315676095464e-05 -5.9339809711086255e-05 0.0005661541940140392 5.0660437789126104e-05 0.0005661541940140392 1.955794730399046e-05" pbc="T T T"
Si       1.66139264       4.20657019       0.50488456
Si       1.25215975      -0.63261621       8.63643043
Si      -0.33113596       5.66803532      -2.26073056
Si      -0.84909928       4.23137318       2.91783749
Si       1.07081106       0.22700438       6.43347615
Si       4.10283001      -2.36372251       5.87907569
Si      -0.03479563      -0.15767866       0.47202492
Si      -0.71991205       1.09940947      -1.33718911
Si       1.31044746      -3.01882732       8.56644376
Si       3.84915038      -2.48661001      12.70024954
Si      -0.67344927      -0.32134660      10.05596045
Si       2.88081550      -0.57101971       5.04782805
Si      -0.30892204       2.15302552       3.79758467
Si       3.83816315      -5.37329374      15.50269051
Si       2.63097357      -4.39093876      13.59766144
Si       1.02237932       2.49567474       5.69386122
Si       0.97459046       0.88194588       2.28551187
Si       3.20647628       0.08705067       9.75327215
Si       2.90093768      -3.72764358      10.16125456
Si       1.74810192      -1.16194205       3.10283161
Si       2.64206118       2.27077104       1.41663907
Si       3.48233870      -4.40382308       2.36113338
22
Lattice="5.036969728560374 -1.5658080952962918 0.3122821282509758 -3.195862987593712 8.020933801279421 -3.7096104392288938 0.7955021743042835 -6.834869174286407 16.33784527004046" Properties=species:S:1:pos:R:3 unique_starting_index=51 config_type=initial n_minim_iter=9 stress="-4.308957321527283e-05 -0.0001116880115493309 -0.00040003885051555205 -0.0001116880115493309 -0.0005763434952746315 -0.0007826395085863136 -0.00040003885051555205 -0.0007826395085863136 0.0008244259346397724" pbc="T T T"
Si       1.66065179       4.20660700       0.48835020
Si       1.23926081      -0.66463428       8.64386940
Si      -0.32776905       5.67319660      -2.27986874
Si      -0.85140612       4.21679052       2.91255694
Si       1.05590159       0.20762300       6.44154592
Si       4.08622170      -2.37919462       5.88655608
Si      -0.03778884      -0.16095769       0.46937527
Si      -0.72896905       1.09215993      -1.34686432
Si       1.29414321      -3.04705284       8.58393916
Si       3.82185841      -2.52576312      12.70820837
Si      -0.68396813      -0.34722710      10.06432127
Si       2.86674010      -0.58357183       5.05347204
Si      -0.31458444       2.13885815       3.80062402
Si       3.81280960      -5.41770532      15.52481164
Si       2.60769775      -4.43233936      13.61500885
Si       1.01319989       2.47556191       5.69742733
Si       0.96875009       0.87838301       2.28168643
Si       3.19037683       0.05752315       9.75380211
Si       2.88809733      -3.75092800      10.18030140
Si       1.74108414      -1.16599917       3.10584383
Si       2.63828049       2.26931990       1.40685712
Si       3.47504752      -4.40850873       2.36513248
22
Lattice="4.992038135874024 -1.5701983817597374 0.27448694880497054 -3.104393562983774 8.15049008033642 -3.7363317456148066 0.5858866630208533 -7.133434088599507 16.208241196511242" Properties=species:S:1:pos:R:3 unique_starting_index=51 config_type=initial n_minim_iter=10 stress="-0.0040003300161006 -0.001499794648880658 -0.0011398735716378696 -0.001499794648880658 0.00033539691766490144 -0.0016003001087054507 -0.0011398735716378696 -0.0016003001087054507 -0.0005619703649236991" pbc="T T T"
Si       1.67087227       4.30777763       0.37929464
Si       1.17243787      -0.87605158       8.52266650
Si      -0.29606936       5.77888100      -2.33506565
Si      -0.83987335       4.16662992       2.87899574
Si       0.93008348       0.12564960       6.41958469
Si       3.93245706      -2.46138667       5.82576911
Si      -0.08545578      -0.19793020       0.40300323
Si      -0.89132923       0.93944480      -1.43087711
Si       1.17120565      -3.24723298       8.54370537
Si       3.60607730      -2.74135236      12.46035709
Si      -0.69244855      -0.40816081       9.90377590
Si       2.73830420      -0.61146184       5.02407859
Si      -0.34425172       2.08474587       3.81136421
Si       3.66626286      -5.66454594      15.32856709
Si       2.45443234      -4.69009238      13.41654593
Si       0.96845110       2.40308223       5.69572165
Si       0.92570340       0.92061294       2.20546443
Si       3.10757394      -0.06584056       9.55071730
Si       2.84957533      -3.82900556      10.12812246
Si       1.68685010      -1.13944339       3.05930948
Si       2.61883693       2.34175606       1.33155026
Si       3.40857428      -4.47180002       2.27289307
22
Lattice="4.986478405045935 -1.5684190688951478 0.26452699338692254 -3.0811657200346807 8.1800596811149 -3.7418354393550466 0.5295560875951885 -7.207344090643448 16.170409810488227" Properties=species:S:1:pos:R:3 unique_starting_index=51 config_type=initial n_minim_iter=11 stress="-0.004114850250901735 -0.0016991462539313956 -0.0014206760259945362 -0.0016991462539313956 0.0005854125246981002 -0.0017349116805502537 -0.0014206760259945362 -0.0017349116805502537 -0.0011538442883436703" pbc="T T T"
Si       1.67756861       4.33490411       0.35027035
Si       1.15749844      -0.93042071       8.48878540
Si      -0.28544424       5.80415155      -2.34900804
Si      -0.83530521       4.15211471       2.87022810
Si       0.89826734       0.10435870       6.41294916
Si       3.89567278      -2.48046857       5.80908445
Si      -0.09895152      -0.20794345       0.38544405
Si      -0.93919032       0.89512271      -1.45391156
Si       1.13988336      -3.29769265       8.53276207
Si       3.55262194      -2.79464977      12.39260837
Si      -0.69173654      -0.42087477       9.85947113
Si       2.70888178      -0.61659664       5.01594184
Si      -0.35224507       2.06928775       3.81377873
Si       3.63318559      -5.72364542      15.27353264
Si       2.41624835      -4.75315478      13.36234245
Si       0.95969772       2.38497977       5.69621090
Si       0.91721902       0.93254121       2.18379164
Si       3.09110990      -0.09562038       9.49547651
Si       2.84383729      -3.84469893      10.11378436
Si       1.67408955      -1.12971566       3.04539870
Si       2.61770762       2.36161883       1.31165937
Si       3.39545926      -4.48315793       2.24758613
22
Lattice="5.024856506097528 -1.529185199698753 0.2712111156130166 -3.0722077806245873 8.110029210573018 -3.710370137152436 0.5450583839651907 -7.084848639808177 16.15213670185038" Properties=species:S:1:pos:R:3 unique_starting_index=51 config_type=initial n_minim_iter=12 stress="0.004159389510276353 0.0030529106824387377 0.001886901587597234 0.0030529106824387377 -0.0012087636242471191 0.001807723671192776 0.001886901587597234 0.001807723671192776 0.0005224889598656218" pbc="T T T"
Si       1.70036455       4.33230593       0.37078109
Si       1.19224096      -0.85314916       8.48888848
Si      -0.25644292       5.75807259      -2.32899571
Si      -0.81212104       4.16766111       2.88204062
Si       0.93866630       0.12723861       6.41833192
Si       3.93264032      -2.43964971       5.80838841
Si      -0.11573223      -0.20531295       0.37188975
Si      -0.96376252       0.86060273      -1.47908590
Si       1.16740560      -3.20595367       8.52802833
Si       3.60147696      -2.68875750      12.39654198
Si      -0.63628572      -0.35237770       9.88544230
Si       2.75723946      -0.57358353       5.00805660
Si      -0.33081998       2.08399102       3.81578442
Si       3.70663079      -5.56916445      15.27881637
Si       2.43112238      -4.64502963      13.38683887
Si       1.01058908       2.42928114       5.71058864
Si       0.95476437       0.93584332       2.18861613
Si       3.14775373      -0.03579154       9.52161380
Si       2.88033241      -3.75738662      10.16435718
Si       1.69409485      -1.10616036       3.05617069
Si       2.65313849       2.36983192       1.33652506
Si       3.41163509      -4.41420754       2.25962684
22
Lattice="5.018317550682354 -1.5417515255244805 0.25200750649998566 -3.0632384526274183 8.143813601434001 -3.7118181892114586 0.48041322658995256 -7.14114535577625 16.152439938645713" Properties=species:S:1:pos:R:3 unique_starting_index=51 config_type=initial n_minim_iter=13 stress="0.0022749521081981915 -5.637441860674588e-05 0.0005786879151837888 -5.637441860674588e-05 7.880661409509891e-05 0.0011474082268494695 0.0005786879151837888 0.0011474082268494695 0.00020334558238391682" pbc="T T T"
Si       1.68860254       4.34553864       0.34667965
Si       1.16358969      -0.87652117       8.46873346
Si      -0.26332025       5.77571942      -2.34387424
Si      -0.83156635       4.17677182       2.87790000
Si       0.90456557       0.10485176       6.40350097
Si       3.89354415      -2.47178305       5.79292843
Si      -0.12557583      -0.20904211       0.36371912
Si      -1.01352497       0.83895923      -1.52044424
Si       1.14409279      -3.23224039       8.53924520
Si       3.51721340      -2.74413539      12.37026765
Si      -0.63678442      -0.35853829       9.89268139
Si       2.74385231      -0.59351489       5.00036927
Si      -0.35400610       2.08018044       3.80893549
Si       3.66885818      -5.62130546      15.26459396
Si       2.36188776      -4.69278338      13.39338245
Si       0.98689650       2.42894139       5.71196383
Si       0.94580122       0.92636662       2.16371799
Si       3.09788902      -0.06702112       9.50067814
Si       2.85105396      -3.78264889      10.19499863
Si       1.66835212      -1.12377613       3.03598492
Si       2.62863927       2.37099462       1.31556305
Si       3.41043656      -4.41702144       2.25091265
22
Lattice="5.013968631299999 -1.5531444313266978 0.2446162795674238 -3.0725746528451006 8.145983720480556 -3.709141668628212 0.47383382010261904 -7.122438096064945 16.19268114900554" Properties=species:S:1:pos:R:3 unique_starting_index=51 config_type=initial n_minim_iter=14 stress="0.0007988832871016289 -0.001861275618996601 0.00012871178219527423 -0.001861275618996601 0.0007966499567257288 0.000663154169204785 0.00012871178219527423 0.000663154169204785 0.0005569853770570744" pbc="T T T"
Si       1.67415196       4.32886882       0.35709910
Si       1.14968532      -0.84105130       8.48349652
Si      -0.27632094       5.76946796      -2.34558272
Si      -0.85270978       4.20146054       2.88119386
Si       0.90783170       0.10879309       6.38737867
Si       3.89581704      -2.47986453       5.79514796
Si      -0.12058911      -0.20020797       0.37576545
Si      -1.00225738       0.87444509      -1.52845726
Si       1.15434361      -3.20633012       8.56324252
Si       3.48750119      -2.74446567      12.42331166
Si      -0.64504487      -0.35939276       9.94658081
Si       2.76239745      -0.60862215       4.99879468
Si      -0.36567262       2.09317289       3.79382657
Si       3.65636136      -5.61644822      15.31036710
Si       2.33242708      -4.67258360      13.45988875
Si       0.97346361       2.44927265       5.70806821
Si       0.94530330       0.90293983       2.16288748
Si       3.06569435      -0.06352241       9.54014794
Si       2.82184097      -3.79661757      10.23268506
Si       1.65489923      -1.15399805       3.02979976
Si       2.60486384       2.34920696       1.31489487
Si       3.41991487      -4.40785342       2.27103287
22
Lattice="4.995048981003518 -1.544862015067881 0.22386239585692685 -3.023273081555856 8.172647684651343 -3.7177026199326573 0.3686027107555736 -7.194692420967534 16.20297136675734" Properties=species:S:1:pos:R:3 unique_starting_index=51 config_type=initial n_minim_iter=15 stress="-0.0021695293494098425 -0.0015211440234399235 -0.0017393722697759987 -0.0015211440234399235 0.0009792731235560182 -0.0009459324800706035 -0.0017393722697759987 -0.0009459324800706035 -0.0011080324515955358" pbc="T T T"
Si       1.68537579       4.34737484       0.33799085
Si       1.11226644      -0.86563137       8.45605519
Si      -0.25399538       5.79436575      -2.37265736
Si      -0.85647280       4.20774174       2.87493859
Si       0.87564065       0.09379761       6.35269933
Si       3.84690214      -2.49946752       5.78164117
Si      -0.13903871      -0.20155869       0.36319449
Si      -1.05069578       0.85781108      -1.56129544
Si       1.11896159      -3.23726453       8.58994970
Si       3.36287905      -2.80990515      12.41823442
Si      -0.65710909      -0.38371521       9.95870757
Si       2.74486893      -0.62427457       4.98454952
Si      -0.37962546       2.08612455       3.77452686
Si       3.57516847      -5.67918524      15.30590942
Si       2.23231261      -4.72198704      13.48529900
Si       0.95626592       2.45670077       5.70566661
Si       0.93589451       0.89274330       2.13495279
Si       3.00978033      -0.08491274       9.52501310
Si       2.76869464      -3.82705702      10.26156299
Si       1.61807252      -1.17272928       3.00639705
Si       2.58141576       2.35204499       1.28780429
Si       3.40028216      -4.39436787       2.26214699
22
Lattice="4.989096112910006 -1.5361601653477914 0.2303242627820379 -3.016661583776913 8.15115531048381 -3.7245016292887327 0.38540402556079495 -7.155180524565991 16.263203623760447" Properties=species:S:1:pos:R:3 unique_starting_index=51 config_type=initial n_minim_iter=16 stress="-0.0010447384178908466 0.00130397992869086 0.0007359159013478076 0.00130397992869086 -9.3936883977764e-05 -0.000748362423974636 0.0007359159013478076 -0.000748362423974636 0.0002343042560796015" pbc="T T T"
Si       1.70200042       4.32625634       0.37527952
Si       1.11650893      -0.81969239       8.47552644
Si      -0.25151110       5.78725397      -2.38051815
Si      -0.86175929       4.22081082       2.88701702
Si       0.91017464       0.12170001       6.32865476
Si       3.87608604      -2.47968568       5.80192299
Si      -0.14096376      -0.18880558       0.36535023
Si      -1.02401119       0.90071857      -1.54119661
Si       1.14961816      -3.19914829       8.63274994
Si       3.34814323      -2.79735882      12.51909583
Si      -0.66687747      -0.39335647      10.01701678
Si       2.77224405      -0.62542821       4.98167384
Si      -0.36224207       2.10151599       3.75573186
Si       3.57842623      -5.65063647      15.38364407
Si       2.23494986      -4.68229208      13.58223671
Si       0.96814698       2.47906662       5.70103157
Si       0.93341311       0.87402906       2.14880877
Si       3.01837021      -0.05418909       9.59525572
Si       2.76076693      -3.82255488      10.29868023
Si       1.61617894      -1.19840081       3.01343960
Si       2.57594544       2.33161719       1.29548629
Si       3.39202576      -4.37144232       2.28855095
22
Lattice="4.990170224810584 -1.5266394705001378 0.22172680492449964 -2.9958458733199604 8.148250983627952 -3.739660744830987 0.33401139719158335 -7.179725642884232 16.31207093922582" Properties=species:S:1:pos:R:3 unique_starting_index=51 config_type=initial n_minim_iter=17 stress="1.1693692404346554e-05 0.0018186374943326765 0.0010737898151183488 0.0018186374943326765 -0.0003656560971491436 0.00016768138423176886 0.0010737898151183488 0.00016768138423176886 0.00044533442036114154" pbc="T T T"
Si       1.72442987       4.32720370       0.38502294
Si       1.10338012      -0.83226438       8.45890039
Si      -0.24200373       5.79908628      -2.41582193
Si      -0.87604320       4.20989497       2.90233602
Si       0.91731484       0.12997982       6.30898274
Si       3.87216720      -2.48667081       5.81446767
Si      -0.17811739      -0.18861592       0.32123189
Si      -1.06764938       0.86256211      -1.54651975
Si       1.14903852      -3.20309114       8.68374134
Si       3.25070874      -2.84938944      12.56872665
Si      -0.67957931      -0.40246612      10.03839926
Si       2.76165174      -0.62743001       4.95729584
Si      -0.34866732       2.09848530       3.75049058
Si       3.55927100      -5.65873277      15.43041281
Si       2.19111237      -4.71583395      13.65770911
Si       0.97296079       2.47594942       5.70459687
Si       0.91517477       0.86991157       2.14641920
Si       3.01709982      -0.05922824       9.62727024
Si       2.76769003      -3.81493529      10.35714849
Si       1.61135235      -1.20629972       3.02204057
Si       2.57699824       2.32649191       1.28589543
Si       3.36713075      -4.34903365       2.28974859
22
Lattice="4.999935903253011 -1.5331958153885672 0.2070230746957804 -2.9984250154535688 8.15513104757834 -3.7562957841229423 0.28082181042769694 -7.220290854522307 16.357816274421868" Properties=species:S:1:pos:R:3 unique_starting_index=51 config_type=initial n_minim_iter=18 stress="0.0004357813431894069 4.340992478241624e-05 -0.00037843666219379866 4.340992478241624e-05 -0.00012221681276947664 0.00022429999277862327 -0.00037843666219379866 0.00022429999277862327 -0.000671767741527944" pbc="T T T"
Si       1.73039161       4.31386366       0.38251721
Si       1.08057749      -0.84905238       8.43696222
Si      -0.25258849       5.80977337      -2.45349418
Si      -0.90471512       4.20156302       2.90989673
Si       0.91892469       0.12754376       6.28576373
Si       3.86682316      -2.50710764       5.82196160
Si      -0.20704560      -0.18988112       0.28859541
Si      -1.10254145       0.84212751      -1.54945150
Si       1.14460763      -3.21840429       8.72797028
Si       3.14347046      -2.92750171      12.61362074
Si      -0.71110664      -0.42643095      10.04662187
Si       2.75728465      -0.64518064       4.92503853
Si      -0.35172235       2.09164702       3.74152101
Si       3.52954384      -5.69914841      15.47245560
Si       2.14311305      -4.76696473      13.73218815
Si       0.96359709       2.46500998       5.69432265
Si       0.89177744       0.85373753       2.13695131
Si       2.99044081      -0.08871176       9.65107586
Si       2.77272325      -3.82917706      10.40006636
Si       1.60505007      -1.22111089       3.02129980
Si       2.56991740       2.30348637       1.27362188
Si       3.36124487      -4.33656194       2.29559994
22
Lattice="5.013147670935415 -1.5482030551979744 0.19561395596613473 -3.018748181833516 8.158281007332915 -3.7947022305666986 0.2445530080474339 -7.26377701649178 16.47673986532949" Properties=species:S:1:pos:R:3 unique_starting_index=51 config_type=initial n_minim_iter=19 stress="0.0016396882161925903 -0.0032238885086419084 -0.0011011337949055555 -0.0032238885086419084 0.00018010012085992524 0.000952089335539344 -0.0011011337949055555 0.000952089335539344 -0.0003364996386114032" pbc="T T T"
Si       1.72764215       4.27663021       0.37790620
Si       1.06006659      -0.85632237       8.43785076
Si      -0.29517244       5.81587802      -2.51061960
Si      -0.93705513       4.19206496       2.92974616
Si       0.94459001       0.12569873       6.29049385
Si       3.86458185      -2.52361843       5.86318906
Si      -0.23267582      -0.20163946       0.26059204
Si      -1.12314246       0.83036383      -1.54821439
Si       1.15058316      -3.23313605       8.80803945
Si       3.01195617      -3.03953692      12.73244763
Si      -0.75647566      -0.46552051      10.05217364
Si       2.77035298      -0.66833931       4.89190803
Si      -0.35272231       2.08377368       3.75167507
Si       3.50279402      -5.75315455      15.60207951
Si       2.10793691      -4.83506365      13.89872482
Si       0.96377970       2.44528224       5.68312874
Si       0.85326148       0.82291226       2.13195924
Si       2.94275547      -0.14045942       9.72989270
Si       2.81261944      -3.84023078      10.47363786
Si       1.60395383      -1.23260204       3.02772085
Si       2.56553781       2.25546500       1.28081309
Si       3.35870909      -4.32118519       2.32960423
22
Lattice="4.999367989179107 -1.5373211177902668 0.18955635940554175 -2.9827021244706597 8.16787215650363 -3.834060376321877 0.1817723460728623 -7.325885737609982 16.581068084400354" Properties=species:S:1:pos:R:3 unique_starting_index=51 config_type=initial n_minim_iter=20 stress="0.0005250545388690198 -0.0025120366515211045 -0.001056286588338404 -0.0025120366515211045 0.0020104987198038505 -7.964553499131503e-05 -0.001056286588338404 -7.964553499131503e-05 0.00030753092216664765" pbc="T T T"
Si       1.73205358       4.27107459       0.35232993
Si       1.04221977      -0.86119206       8.45292351
Si      -0.31171067       5.82599040      -2.55684898
Si      -0.91879725       4.19398146       2.94088176
Si       0.95921670       0.11087667       6.32298046
Si       3.82196145      -2.51979556       5.90136879
Si      -0.24018178      -0.23002138       0.26519530
Si      -1.13944730       0.81535264      -1.57714533
Si       1.13007403      -3.25298097       8.86579140
Si       2.89784436      -3.12554641      12.81269424
Si      -0.76310776      -0.49587235      10.02912592
Si       2.78334967      -0.67191377       4.88761817
Si      -0.35100095       2.07622930       3.77508788
Si       3.44648623      -5.80784838      15.72241350
Si       2.04472338      -4.89899683      14.04096777
Si       0.98401572       2.43966731       5.68277598
Si       0.83179769       0.80346209       2.11432751
Si       2.87170451      -0.18377947       9.79027718
Si       2.82689913      -3.84241172      10.53650990
Si       1.58072502      -1.22616362       3.02165784
Si       2.56480327       2.23781860       1.29841469
Si       3.33515829      -4.29986377       2.36721912
22
Lattice="4.99267855261472 -1.5242082904822627 0.19457998913695185 -2.96730561740868 8.148917448751515 -3.832938425284345 0.18523848194314188 -7.310117801382532 16.569079676705094" Properties=species:S:1:pos:R:3 unique_starting_index=51 config_type=initial n_minim_iter=21 stress="-0.0003835279088343002 -0.000212050623573402 0.0006534186374970378 -0.000212050623573402 5.5110720608372594e-05 -0.00019413630352658603 0.0006534186374970378 -0.00019413630352658603 -0.0005921919621992163" pbc="T T T"
Si       1.73456126       4.27121410       0.34879003
Si       1.04642873      -0.85540302       8.46252536
Si      -0.30865855       5.80960965      -2.55026077
Si      -0.89005212       4.18929006       2.93805497
Si       0.96414858       0.10864756       6.34131516
Si       3.81684442      -2.49689300       5.89942936
Si      -0.23219937      -0.24464160       0.28745771
Si      -1.11868995       0.82069064      -1.57167692
Si       1.12331248      -3.24485052       8.84435805
Si       2.92453447      -3.10727350      12.79307841
Si      -0.75207709      -0.49104005       9.98562001
Si       2.78667941      -0.65713744       4.89984280
Si      -0.34668627       2.07253447       3.78426752
Si       3.43800841      -5.79726892      15.72303389
Si       2.04647869      -4.88495821      14.02592703
Si       0.99875317       2.43756169       5.68332950
Si       0.83638577       0.81091588       2.11310123
Si       2.86155014      -0.17661146       9.78311626
Si       2.83068797      -3.82668001      10.50390753
Si       1.57476993      -1.20808496       3.01931793
Si       2.57265454       2.24164483       1.31336981
Si       3.32779363      -4.29299368       2.37262063
