16
Lattice="5.491434610922093 2.2534503933971074e-07 0.4211431139064102 -7.372315092185704e-07 11.015620094984252 3.718791144355501e-06 -0.4960567140373416 -5.507812245140928 6.411424454751519" Properties=species:S:1:pos:R:3 unique_starting_index=69 config_type=initial n_minim_iter=1 energy=-2606.3497457162052 free_energy=-2606.3497457162052 pbc="T T T"
Si       2.40404779       1.19299576       4.59358849
Si       2.59132931       6.70080662       2.23898232
Si       2.59132947       4.31481341       2.23898152
Si       2.40404795      -1.19299744       4.59358768
Si       4.21144862       8.25888005       1.50709303
Si       0.78392828       2.75106848       5.32547884
Si       0.78392864      -2.75107087       5.32547698
Si       4.21144898       2.75674070       1.50709117
Si       2.40370044       4.31321784       4.59872672
Si       2.59167698      -1.19459140       2.23384248
Si       2.59167682       1.19459134       2.23384329
Si       2.40370028       6.70240058       4.59872753
Si       1.09934531       8.25671648       1.27263970
Si       3.89603158       2.74890518       5.55993216
Si       3.89603195      -2.74890731       5.55993030
Si       1.09934568       2.75890400       1.27263785
16
Lattice="5.490580564537778 2.2478555327167711e-07 0.42263108562978885 -7.370387855654921e-07 11.012740442509397 3.717818995161853e-06 -0.4943345522379512 -5.506372419194286 6.4126272230454076" Properties=species:S:1:pos:R:3 unique_starting_index=69 config_type=initial n_minim_iter=2 stress="-0.00012136439509421018 1.55907868043847e-11 -4.2039245978188524e-05 1.55907868043847e-11 -0.00014226270996079346 -5.928619087313703e-11 -4.2039245978188524e-05 -5.928619087313703e-11 2.5018275780181115e-05" pbc="T T T"
Si       2.40480313       1.19265640       4.59513648
Si       2.59144208       6.69902743       2.24012507
Si       2.59144224       4.31371295       2.24012426
Si       2.40480329      -1.19265808       4.59513568
Si       4.21109412       8.25671522       1.50856301
Si       0.78515089       2.75034349       5.32669959
Si       0.78515126      -2.75034587       5.32669774
Si       4.21109448       2.75602586       1.50856115
Si       2.40450576       4.31213662       4.60029205
Si       2.59173977      -1.19423279       2.23496789
Si       2.59173961       1.19423273       2.23496869
Si       2.40450560       6.70060214       4.60029286
Si       1.09945558       8.25463985       1.27316464
Si       3.89678942       2.74826837       5.56209796
Si       3.89678979      -2.74827050       5.56209611
Si       1.09945595       2.75810098       1.27316278
16
Lattice="5.491388662365941 2.243904035049277e-07 0.423961780119777 -7.371250729807859e-07 11.01402973815107 3.7182542517488277e-06 -0.49288300467114604 -5.507017067046002 6.413006449513315" Properties=species:S:1:pos:R:3 unique_starting_index=69 config_type=initial n_minim_iter=3 stress="9.04344832721514e-05 -2.119700442269338e-11 6.984725826911604e-05 -2.119700442269338e-11 5.4827271127856645e-05 -2.847481703012896e-11 6.984725826911604e-05 -2.847481703012896e-11 0.00015302117928182055" pbc="T T T"
Si       2.40621934       1.19275319       4.59601682
Si       2.59228552       6.69976887       2.24095465
Si       2.59228568       4.31426081       2.24095384
Si       2.40621950      -1.19275487       4.59601601
Si       4.21200372       8.25767372       1.50979060
Si       0.78650094       2.75065734       5.32718192
Si       0.78650130      -2.75065973       5.32718006
Si       4.21200408       2.75635666       1.50978875
Si       2.40600193       4.31271659       4.60119897
Si       2.59250325      -1.19429747       2.23577089
Si       2.59250309       1.19429741       2.23577169
Si       2.40600177       6.70131147       4.60119978
Si       1.09986497       8.25574226       1.27348379
Si       3.89863969       2.74872613       5.56348873
Si       3.89864005      -2.74872826       5.56348687
Si       1.09986533       2.75828787       1.27348194
16
Lattice="5.491090214076355 2.241272168319929e-07 0.42468221287115376 -7.371392263281932e-07 11.014241215727706 3.718325644996444e-06 -0.4918478286815556 -5.5071228050295185 6.410827730887946" Properties=species:S:1:pos:R:3 unique_starting_index=69 config_type=initial n_minim_iter=4 stress="-1.3456600275815633e-05 -5.2744459915647164e-11 0.0001540325872543523 -5.2744459915647164e-11 -2.3363527201612495e-06 8.964593545648773e-11 0.0001540325872543523 8.964593545648773e-11 -0.0002373443166213643" pbc="T T T"
Si       2.40684903       1.19268952       4.59478142
Si       2.59239256       6.69981094       2.24073176
Si       2.59239272       4.31443021       2.24073096
Si       2.40684919      -1.19269120       4.59478062
Si       4.21198840       8.25781728       1.51021564
Si       0.78725298       2.75069515       5.32529860
Si       0.78725335      -2.75069754       5.32529674
Si       4.21198877       2.75642458       1.51021378
Si       2.40681703       4.31296610       4.60002228
Si       2.59242488      -1.19415370       2.23548930
Si       2.59242472       1.19415364       2.23549010
Si       2.40681687       6.70127344       4.60002308
Si       1.09992933       8.25622821       1.27315384
Si       3.89931205       2.74910634       5.56236039
Si       3.89931241      -2.74910847       5.56235854
Si       1.09992970       2.75801340       1.27315199
16
Lattice="5.490059360314588 2.2458417291845782e-07 0.4231242785015652 -7.371995501032297e-07 11.015142565919662 3.7186299340932636e-06 -0.49365373437107796 -5.507573480598902 6.411872017239318" Properties=species:S:1:pos:R:3 unique_starting_index=69 config_type=initial n_minim_iter=5 stress="-8.667647121381595e-05 -1.2069780114878899e-11 5.514919543034104e-06 -1.2069780114878899e-11 6.585123490622364e-05 1.9066368238073333e-11 5.514919543034104e-06 1.9066368238073333e-11 1.0468173915755195e-05" pbc="T T T"
Si       2.40545133       1.19244711       4.59434139
Si       2.59095350       6.70001920       2.24065815
Si       2.59095366       4.31512330       2.24065735
Si       2.40545149      -1.19244879       4.59434058
Si       4.21096882       8.25845337       1.51030938
Si       0.78543580       2.75088057       5.32469120
Si       0.78543617      -2.75088295       5.32468935
Si       4.21096918       2.75668985       1.51030753
Si       2.40616664       4.31400491       4.59982267
Si       2.59023851      -1.19356557       2.23517526
Si       2.59023835       1.19356551       2.23517606
Si       2.40616648       6.70113598       4.59982347
Si       1.09914479       8.25827570       1.27271906
Si       3.89725983       2.75070316       5.56228152
Si       3.89726020      -2.75070529       5.56227967
Si       1.09914516       2.75686725       1.27271721
16
Lattice="5.491281930651357 2.2473961198735296e-07 0.42290621291748887 -7.370570714337421e-07 11.013013667623628 3.717911233910989e-06 -0.49400431799299976 -5.506509031410725 6.4116835556442995" Properties=species:S:1:pos:R:3 unique_starting_index=69 config_type=initial n_minim_iter=6 stress="6.054229330743143e-05 1.0273060470511715e-11 -6.590207782472254e-06 1.0273060470511715e-11 -5.9712139319086385e-05 -1.6995104192294367e-11 -6.590207782472254e-06 -1.6995104192294367e-11 -1.0675209811636915e-05" pbc="T T T"
Si       2.40591448       1.19223111       4.59409818
Si       2.59136233       6.69873875       2.24049483
Si       2.59136249       4.31427485       2.24049403
Si       2.40591464      -1.19223279       4.59409737
Si       4.21180269       8.25690067       1.51026171
Si       0.78547392       2.75039232       5.32433235
Si       0.78547428      -2.75039471       5.32433049
Si       4.21180306       2.75611364       1.51025986
Si       2.40667142       4.31321887       4.59957902
Si       2.59060572      -1.19328715       2.23501238
Si       2.59060556       1.19328709       2.23501319
Si       2.40667126       6.69979312       4.59957982
Si       1.09937146       8.25684795       1.27257072
Si       3.89790515       2.75033985       5.56202334
Si       3.89790552      -2.75034199       5.56202148
Si       1.09937183       2.75616611       1.27256887
16
Lattice="5.490864884536904 2.247669347699179e-07 0.4227426014343956 -7.371903362741463e-07 11.015004894022667 3.7185834570840095e-06 -0.49415527651755176 -5.507504644609828 6.411652389995693" Properties=species:S:1:pos:R:3 unique_starting_index=69 config_type=initial n_minim_iter=7 stress="-1.0511006252786978e-06 3.715211740765355e-12 -1.4920662984798672e-05 3.715211740765355e-12 1.8703123823004754e-05 -2.75492015580748e-12 -1.4920662984798672e-05 -2.75492015580748e-12 2.3906827800165473e-05" pbc="T T T"
Si       2.40641369       1.19295495       4.59421420
Si       2.59029512       6.70045820       2.24018404
Si       2.59029528       4.31454663       2.24018323
Si       2.40641385      -1.19295662       4.59421339
Si       4.21077313       8.25894723       1.51119120
Si       0.78593547       2.75144326       5.32320808
Si       0.78593584      -2.75144565       5.32320623
Si       4.21077350       2.75605831       1.51118934
Si       2.40708091       4.31396010       4.59948936
Si       2.58962822      -1.19354154       2.23490726
Si       2.58962806       1.19354148       2.23490807
Si       2.40708075       6.70104311       4.59949017
Si       1.09957797       8.25928582       1.27195435
Si       3.89713063       2.75178211       5.56244494
Si       3.89713100      -2.75178425       5.56244308
Si       1.09957834       2.75571946       1.27195249
