16
Lattice="5.4715840966251985 -0.2689083477787195 -3.035727376107863 0.5517146618984133 8.149691132108556 -0.34726684959356885 -1.8540188325621507 1.3165947877015916 7.5036504763164125" Properties=species:S:1:pos:R:3 unique_starting_index=30 config_type=initial n_minim_iter=1 energy=-2605.191043168758 free_energy=-2605.191043168758 pbc="T T T"
Si       1.28021919       7.51666368       2.01403711
Si       2.88906074       1.68071389       2.10661914
Si       1.65283640       4.25962798       0.59120840
Si       2.51644353       4.93774959       3.52944785
Si       2.85260926       2.74441012       4.24645096
Si       1.31667066       6.45296745      -0.12579471
Si       3.84046934       4.77410764      -2.00085596
Si       0.32881059       4.42326993       6.12151221
Si       0.27752566       4.59318499       2.61970215
Si       3.89175427       4.60419258       1.50095410
Si       4.95694413       6.72221955       0.52111298
Si      -0.78766420       2.47515802       3.59954327
Si       0.53874477       1.65378045       1.73418130
Si       3.63053515       7.54359712       2.38647496
Si       3.33093386       7.03658302      -1.20435062
Si       0.83834606       2.16079455       5.32500688
16
Lattice="5.444922981127028 -0.25933604605508187 -3.0194947909282392 0.5538731866834361 8.159782410858025 -0.3632656560159909 -1.8454279183836757 1.3005617466559183 7.459997224916971" Properties=species:S:1:pos:R:3 unique_starting_index=30 config_type=initial n_minim_iter=2 stress="-0.0024067166209695012 -0.0007048704704385404 -0.00026843419962361144 -0.0007048704704385404 -0.0028405199898807135 0.00018442600122888455 -0.00026843419962361144 0.00018442600122888455 -0.0027693992457457368" pbc="T T T"
Si       1.27714192       7.52141106       1.98587935
Si       2.87622633       1.67959705       2.09135743
Si       1.64786851       4.26353974       0.57897190
Si       2.50549974       4.93746837       3.49826488
Si       2.83935570       2.73922346       4.21650066
Si       1.31401255       6.46178465      -0.13926388
Si       3.82493484       4.78553898      -2.00009592
Si       0.32843341       4.41546913       6.07733270
Si       0.27698041       4.59247638       2.59418929
Si       3.87638784       4.60853173       1.48304748
Si       4.93565325       6.73056895       0.50200037
Si      -0.78228500       2.47043916       3.57523641
Si       0.53646246       1.65176800       1.72091288
Si       3.61690579       7.54924011       2.35632390
Si       3.31878696       7.04735844      -1.21261057
Si       0.83458129       2.15364967       5.28984735
16
Lattice="5.442980110313218 -0.2247479402896465 -3.016215653498558 0.5876434853129313 8.280039988961802 -0.4051775126312938 -1.8348393326807293 1.2728832524735196 7.4572411063110575" Properties=species:S:1:pos:R:3 unique_starting_index=30 config_type=initial n_minim_iter=3 stress="0.0011756334120272805 -0.0006348964006008679 -0.0009394841772923575 -0.0006348964006008679 0.01116551056253835 -0.0035492146055022366 -0.0009394841772923575 -0.0035492146055022366 0.0007925953835014161" pbc="T T T"
Si       1.30436417       7.62502644       1.94694235
Si       2.89142010       1.70314886       2.08890559
Si       1.67115901       4.32603717       0.56247126
Si       2.52462526       5.00213813       3.47337668
Si       2.85494040       2.76505884       4.20581014
Si       1.34084386       6.56311646      -0.16996220
Si       3.84541533       4.87721143      -2.01699315
Si       0.35036893       4.45096387       6.05284109
Si       0.28867211       4.64381584       2.56585366
Si       3.90711215       4.68435947       1.46999428
Si       4.96192032       6.83849730       0.46768752
Si      -0.76613606       2.48967800       3.56816042
Si       0.54322244       1.66525040       1.71394648
Si       3.65256183       7.66292490       2.32190146
Si       3.34754340       7.15823568      -1.24165678
Si       0.84824086       2.16993962       5.27750472
16
Lattice="5.42467409190392 -0.17409616399160088 -2.997780703987134 0.6675698005280598 8.228015573809952 -0.38705382713057634 -1.7868637727213277 1.26011359708501 7.466128331435779" Properties=species:S:1:pos:R:3 unique_starting_index=30 config_type=initial n_minim_iter=4 stress="-0.0003315284340917675 0.0032267330824926384 0.001285974331358892 0.0032267330824926384 -4.115482784595235e-05 -0.0014573240098608266 0.001285974331358892 -0.0014573240098608266 -0.0006252576452173694" pbc="T T T"
Si       1.37414713       7.59515618       1.96585203
Si       2.93123299       1.71887683       2.11544177
Si       1.72776611       4.31254109       0.58798686
Si       2.57761401       5.00149192       3.49330694
Si       2.90109415       2.77849723       4.22777990
Si       1.40428597       6.53553577      -0.14648610
Si       3.88481783       4.87203622      -1.97829030
Si       0.42056229       4.44199679       6.05958410
Si       0.32356978       4.61482268       2.56574962
Si       3.98181034       4.69921033       1.51554418
Si       5.02228047       6.82723353       0.49589871
Si      -0.71690035       2.48679948       3.58539509
Si       0.56422920       1.65212951       1.72350707
Si       3.74115092       7.66190350       2.35778674
Si       3.40959735       7.11932109      -1.20348122
Si       0.89578277       2.19471192       5.28477502
16
Lattice="5.429760967833137 -0.24137227620822366 -3.022181753303322 0.5933748662904155 8.219060413765666 -0.34309610823416725 -1.8237197307619855 1.3194053746932024 7.487045545689659" Properties=species:S:1:pos:R:3 unique_starting_index=30 config_type=initial n_minim_iter=5 stress="-0.004641954467948075 -0.00011191974206533298 -0.002995045679291475 -0.00011191974206533298 -0.0009446982277185325 0.002870141424128086 -0.002995045679291475 0.002870141424128086 0.001016316707731796" pbc="T T T"
Si       1.28524858       7.59839116       2.00259756
Si       2.91416752       1.69870236       2.11917012
Si       1.69686061       4.29983632       0.61278785
Si       2.50255549       4.99725719       3.50897984
Si       2.85812219       2.77456224       4.23232494
Si       1.34129391       6.52253127      -0.11055726
Si       3.84280414       4.81629560      -1.95623957
Si       0.35661196       4.48079791       6.07800725
Si       0.25531298       4.62154643       2.58143765
Si       3.94410312       4.67554709       1.54033003
Si       4.94567715       6.76933290       0.50795915
Si      -0.74626104       2.52776061       3.61380853
Si       0.54029077       1.64825606       1.73178711
Si       3.65912533       7.64883745       2.38998058
Si       3.34208199       7.06949659      -1.17206045
Si       0.85733411       2.22759692       5.29382814
16
Lattice="5.452358470395575 -0.2557469725959003 -2.9901185942063266 0.5625342576032331 8.209348165119472 -0.3596716562373754 -1.8115054833444295 1.3072247244673754 7.45092170473289" Properties=species:S:1:pos:R:3 unique_starting_index=30 config_type=initial n_minim_iter=6 stress="0.00022296675214589275 -0.0018671588709872323 0.0010689763035108188 -0.0018671588709872323 -0.002451485532222327 0.0008421701874430948 0.0010689763035108188 0.0008421701874430948 -0.0010810263715832645" pbc="T T T"
Si       1.26539362       7.58278903       1.98088735
Si       2.93799362       1.67803688       2.12024411
Si       1.69994213       4.28722600       0.60916047
Si       2.50344512       4.97359991       3.49197099
Si       2.88260188       2.75045974       4.21918618
Si       1.32078537       6.51036618      -0.11805473
Si       3.83920243       4.79610789      -1.94268997
Si       0.36418481       4.46471803       6.04382142
Si       0.24123332       4.60676006       2.55660632
Si       3.96215392       4.65406586       1.54452513
Si       4.94776661       6.73416598       0.50576332
Si      -0.74437936       2.52665993       3.59536814
Si       0.54298505       1.63669426       1.72385373
Si       3.66040219       7.62413166       2.37727772
Si       3.32755098       7.04882032      -1.17265250
Si       0.87583626       2.21200560       5.27378395
16
Lattice="5.477424250619037 -0.1823587702341644 -3.0001854435745816 0.6440727284156359 8.255493311881215 -0.4195190720359192 -1.8235784373917283 1.2415211387134772 7.443344635091804" Properties=species:S:1:pos:R:3 unique_starting_index=30 config_type=initial n_minim_iter=7 stress="0.006153172637906622 0.0017325216966260903 -0.002279323696994431 0.0017325216966260903 0.0003902897342518623 -0.002334185455082623 -0.002279323696994431 -0.002334185455082623 -0.0008064578121819805" pbc="T T T"
Si       1.33196300       7.61895588       1.92364311
Si       2.96595554       1.69569980       2.09999701
Si       1.76930164       4.32104278       0.57839472
Si       2.52861691       4.99361290       3.44524540
Si       2.91756826       2.76840217       4.18374718
Si       1.38035028       6.54625351      -0.16010706
Si       3.90384400       4.85825265      -1.98194626
Si       0.39407454       4.45640303       6.00558638
Si       0.26966865       4.60351005       2.50943581
Si       4.02824989       4.71114563       1.51420431
Si       5.02064013       6.79250376       0.44093196
Si      -0.72272159       2.52215192       3.58270816
Si       0.55804701       1.63187801       1.71047393
Si       3.73987153       7.68277767       2.31316619
Si       3.40428360       7.12454718      -1.24045203
Si       0.89363494       2.19010850       5.26409215
16
Lattice="5.3854892510424195 -0.14769471165135478 -2.967820035245329 0.6785313539474666 8.34300096246152 -0.43781067521543593 -1.7230853285614107 1.2255106986980202 7.474709568173204" Properties=species:S:1:pos:R:3 unique_starting_index=30 config_type=initial n_minim_iter=8 stress="0.001490201131028238 0.0008760322089017697 0.0032297145345241314 0.0008760322089017697 0.005421787642069662 -0.0028853087990174876 0.0032297145345241314 -0.0028853087990174876 0.00547361706496815" pbc="T T T"
Si       1.37127753       7.70235918       1.93381582
Si       2.96965774       1.71845777       2.13526304
Si       1.81349633       4.37700951       0.59460879
Si       2.52743895       5.04380744       3.47447006
Si       2.95110686       2.81433594       4.22498052
Si       1.38982842       6.60648100      -0.15590166
Si       3.86534685       4.91680371      -1.96825356
Si       0.47558842       4.50401324       6.03733241
Si       0.30604733       4.63164218       2.50000596
Si       4.03488794       4.78917477       1.56907290
Si       4.99447331       6.86215219       0.46798605
Si      -0.65353803       2.55866475       3.60109281
Si       0.58169773       1.64085810       1.72452661
Si       3.75923755       7.77995885       2.34455225
Si       3.38185459       7.22247338      -1.25101436
Si       0.95908069       2.19834357       5.32009322
16
Lattice="5.405929972238818 -0.17618308377499764 -2.959486622863355 0.6611654226337645 8.341245195249876 -0.3952373882257532 -1.7469031999219984 1.2681789587005816 7.432241582425045" Properties=species:S:1:pos:R:3 unique_starting_index=30 config_type=initial n_minim_iter=9 stress="0.0005274584394191379 0.00020991277715388625 0.0006990641151907016 0.00020991277715388625 0.0019598801945470176 -0.000564611964344865 0.0006990641151907016 -0.000564611964344865 0.0012872444764094816" pbc="T T T"
Si       1.34894121       7.71372559       1.95782129
Si       2.97125099       1.71951548       2.11969628
Si       1.82380248       4.38133136       0.61009749
Si       2.49638971       5.05190971       3.46742009
Si       2.94793219       2.83654115       4.19961636
Si       1.37226000       6.59669992      -0.12209879
Si       3.86512326       4.89340384      -1.93995902
Si       0.45506894       4.53983723       6.01747659
Si       0.28783104       4.63731082       2.49703021
Si       4.03236115       4.79593025       1.58048736
Si       4.98275313       6.84294188       0.48250987
Si      -0.66256093       2.59029919       3.59500770
Si       0.57709300       1.64529757       1.71914343
Si       3.74309920       7.78794350       2.35837414
Si       3.36971359       7.21073292      -1.22143879
Si       0.95047860       2.22250815       5.29895636
16
Lattice="5.413239789150914 -0.18831163307505355 -2.955409699111205 0.6526196248490301 8.338544861525298 -0.37870300855759575 -1.7580139781551696 1.2847318490454158 7.410396519444932" Properties=species:S:1:pos:R:3 unique_starting_index=30 config_type=initial n_minim_iter=10 stress="-0.0006076360899259267 -0.0003151607504118154 -0.0006996316695822847 -0.0003151607504118154 -0.0013751013007963994 0.0006865729930421024 -0.0006996316695822847 0.0006865729930421024 -0.0009291860565722552" pbc="T T T"
Si       1.33713023       7.71767792       1.96814983
Si       2.97071520       1.71728716       2.10813398
Si       1.83957184       4.38691074       0.61579147
Si       2.46827360       5.04805434       3.46049234
Si       2.94768656       2.84932456       4.18441708
Si       1.36015888       6.58564052      -0.10813326
Si       3.86024140       4.88391108      -1.93311049
Si       0.44760404       4.55105400       6.00939430
Si       0.28150949       4.63125812       2.48915139
Si       4.02633595       4.80370696       1.58713242
Si       4.96861500       6.82666352       0.48221742
Si      -0.66076957       2.60830156       3.59406639
Si       0.57633422       1.64462297       1.71593629
Si       3.73151121       7.79034210       2.36034752
Si       3.35677078       7.20186029      -1.21525790
Si       0.95107465       2.23310479       5.29154171
16
Lattice="5.41557403036553 -0.1842880311351214 -2.9308900057458316 0.672331080281769 8.387081194157044 -0.35589562798939517 -1.7497302504360492 1.3064852530728466 7.362473410406203" Properties=species:S:1:pos:R:3 unique_starting_index=30 config_type=initial n_minim_iter=11 stress="-0.001506194478467455 -0.00021440067496344444 -0.00196239311135993 -0.00021440067496344444 -0.003706214017679374 0.002054304663895857 -0.00196239311135993 0.002054304663895857 -0.003470400737168376" pbc="T T T"
Si       1.35192238       7.77666557       1.98412818
Si       2.98625248       1.73261285       2.09155960
Si       1.90265714       4.43791709       0.62794654
Si       2.43551772       5.07136132       3.44774123
Si       2.97449784       2.89972264       4.16167142
Si       1.36367702       6.60955578      -0.08598365
Si       3.86233443       4.92296402      -1.91829801
Si       0.47584043       4.58631440       5.99398579
Si       0.29783039       4.63637398       2.46100659
Si       4.04034447       4.87290444       1.61468119
Si       4.96277015       6.85359496       0.48111918
Si      -0.62459529       2.65568346       3.59456860
Si       0.58878636       1.65014222       1.71057358
Si       3.74938850       7.85913620       2.36511420
Si       3.35150439       7.23284637      -1.20199565
Si       0.98667047       2.27643205       5.27768343
16
Lattice="5.403629312876698 -0.16523416832712803 -2.9362247928620127 0.6756659664046966 8.40009208972809 -0.40062864496865713 -1.733578961513274 1.266837176022622 7.392724237762344" Properties=species:S:1:pos:R:3 unique_starting_index=30 config_type=initial n_minim_iter=12 stress="-1.954499018600672e-05 -0.00018168526142473508 0.0002830461145914762 -0.00018168526142473508 -0.0001827323094455884 -0.0006938361787889047 0.0002830461145914762 -0.0006938361787889047 0.0005796372677758144" pbc="T T T"
Si       1.35825423       7.77447428       1.95760948
Si       2.98746209       1.72722082       2.09826132
Si       1.90311900       4.44706712       0.60789961
Si       2.44259732       5.05462797       3.44797119
Si       2.97996677       2.87642448       4.17792696
Si       1.36574955       6.62527062      -0.12205616
Si       3.85294682       4.95862571      -1.95535387
Si       0.49276950       4.54306938       6.01122467
Si       0.30786619       4.62187318       2.44458315
Si       4.03785012       4.87982192       1.61128765
Si       4.95390417       6.86838082       0.45097964
Si      -0.60818785       2.63331428       3.60489116
Si       0.59334332       1.64185793       1.71402454
Si       3.75237300       7.85983716       2.34184626
Si       3.34219060       7.23778732      -1.23813737
Si       1.00352572       2.26390778       5.29400817
16
Lattice="5.395723257061017 -0.15563036531538468 -2.9144691545018038 0.7043131213062365 8.456866943304439 -0.37588104860684973 -1.71005659896414 1.2897310449880928 7.370324081648519" Properties=species:S:1:pos:R:3 unique_starting_index=30 config_type=initial n_minim_iter=13 stress="0.0011229282935354963 0.0008159151035873981 0.0009390091343240481 0.0008159151035873981 0.002819207793895992 0.0001632194397149289 0.0009390091343240481 0.0001632194397149289 0.0008460638031354496" pbc="T T T"
Si       1.38429448       7.83622460       1.97623318
Si       3.00568530       1.75474302       2.10374070
Si       1.93495846       4.49121988       0.62167359
Si       2.45502132       5.09974774       3.45830029
Si       3.00853936       2.91578944       4.17848901
Si       1.38144042       6.67517818      -0.09851513
Si       3.86221598       4.99996384      -1.92891840
Si       0.52776380       4.59100379       6.00889228
Si       0.31967556       4.64672992       2.43097547
Si       4.07030421       4.94423771       1.64899840
Si       4.96658898       6.92357431       0.47147864
Si      -0.57660920       2.66739331       3.60849523
Si       0.60577705       1.65363958       1.71683055
Si       3.78420273       7.93732805       2.36314333
Si       3.35327261       7.28993766      -1.21443904
Si       1.03670717       2.30102997       5.29441292
16
Lattice="5.394722315222452 -0.18282801171274587 -2.935239740067416 0.6606837015570556 8.428958361184428 -0.38122588705723404 -1.739968568652022 1.2926077806754317 7.378680659730765" Properties=species:S:1:pos:R:3 unique_starting_index=30 config_type=initial n_minim_iter=14 stress="0.00035090739362859675 -0.00025512117030237287 -0.0004414292344674988 -0.00025512117030237287 0.0002582781124448171 -0.00031164928575692176 -0.0004414292344674988 -0.00031164928575692176 -8.493036147984741e-05" pbc="T T T"
Si       1.33009558       7.79607530       1.97130141
Si       2.98534187       1.74266283       2.09091362
Si       1.91186849       4.48383072       0.59850827
Si       2.40356896       5.05490741       3.46370676
Si       2.98742937       2.87560864       4.16906366
Si       1.32800808       6.66312949      -0.10684862
Si       3.82349363       4.98053709      -1.96361951
Si       0.49194382       4.55820104       6.02583454
Si       0.27621567       4.60418120       2.39400052
Si       4.03922177       4.93455693       1.66821452
Si       4.89356324       6.88229926       0.44102715
Si      -0.57812580       2.65643887       3.62118789
Si       0.59697745       1.63945404       1.72217383
Si       3.71846000       7.89928409       2.34004120
Si       3.28893492       7.25940144      -1.25243025
Si       1.02650252       2.27933669       5.31464528
16
Lattice="5.384506220714987 -0.17929636281924125 -2.9281941828810556 0.6721792557735801 8.42940335023979 -0.36736415474283923 -1.726026994118648 1.301846223890032 7.3778045014506635" Properties=species:S:1:pos:R:3 unique_starting_index=30 config_type=initial n_minim_iter=15 stress="-0.0007750923210496976 0.0001585766706288133 0.0005162703926915778 0.0001585766706288133 -0.0004887417181742999 0.0005673445690034345 0.0005162703926915778 0.0005673445690034345 -7.113475434616529e-05" pbc="T T T"
Si       1.34150504       7.79931369       1.98469592
Si       2.98915345       1.75263952       2.09755024
Si       1.91713032       4.49093950       0.60873907
Si       2.41352816       5.06101371       3.47350709
Si       2.99611318       2.88454813       4.17890090
Si       1.33454530       6.66740508      -0.09665473
Si       3.82195243       4.98415438      -1.95127114
Si       0.50870605       4.56779884       6.03351730
Si       0.28694719       4.60677524       2.39955000
Si       4.04371129       4.94517798       1.68269616
Si       4.89737123       6.89333310       0.45833643
Si      -0.56671275       2.65862011       3.62390974
Si       0.60196027       1.64270520       1.72733575
Si       3.72869821       7.90924801       2.35491041
Si       3.29353854       7.26310122      -1.23659403
Si       1.03711994       2.28885199       5.31884019
16
Lattice="5.389267958908521 -0.16784584971320754 -2.931318139256146 0.6814308094167635 8.429902260001063 -0.38269610449805236 -1.7290402017683986 1.285979374184711 7.379442808130758" Properties=species:S:1:pos:R:3 unique_starting_index=30 config_type=initial n_minim_iter=16 stress="0.00021302410996901257 0.00046694460908249885 6.038082498698971e-05 0.00046694460908249885 -0.00013071256844991773 -0.0002090058639600411 6.038082498698971e-05 -0.0002090058639600411 0.00022786634837795695" pbc="T T T"
Si       1.34248323       7.79199934       1.97003229
Si       2.99917533       1.75603645       2.09539628
Si       1.93025625       4.50027524       0.60512117
Si       2.41140232       5.04776055       3.46030739
Si       3.00690993       2.87568258       4.17772174
Si       1.33474864       6.67235321      -0.11229317
Si       3.82448430       4.98698392      -1.96109697
Si       0.51717427       4.56105186       6.02652554
Si       0.28962972       4.59663917       2.38719934
Si       4.05202885       4.95139661       1.67822922
Si       4.90141730       6.89900055       0.44516628
Si      -0.55975874       2.64903524       3.62026228
Si       0.60598792       1.63630780       1.73110350
Si       3.73567065       7.91172799       2.33432506
Si       3.30092059       7.27093781      -1.25119373
Si       1.04073798       2.27709797       5.31662229
16
Lattice="5.3925602969539845 -0.1759737040755642 -2.932466187727374 0.6718143019797024 8.426812553916648 -0.3786648759465516 -1.734285702243135 1.291667184708819 7.377858016670666" Properties=species:S:1:pos:R:3 unique_starting_index=30 config_type=initial n_minim_iter=17 stress="0.00012965222902761289 9.897773207740868e-06 1.9907164096648183e-05 9.897773207740868e-06 -6.826940860155224e-05 -4.804136376399625e-05 1.9907164096648183e-05 -4.804136376399625e-05 -4.1914219623652305e-05" pbc="T T T"
Si       1.33254123       7.78791705       1.97211942
Si       2.99754767       1.75458898       2.09460753
Si       1.92305858       4.49836314       0.60575806
Si       2.40703031       5.04414290       3.46096890
Si       3.00350762       2.87128186       4.17846583
Si       1.32658128       6.67122417      -0.11173887
Si       3.81998215       4.98050525      -1.96030331
Si       0.51010675       4.56200079       6.02703026
Si       0.28422523       4.59658753       2.38947449
Si       4.04586367       4.94591851       1.67725246
Si       4.89498021       6.89469571       0.44775582
Si      -0.56489131       2.64781033       3.61897113
Si       0.60439434       1.63612093       1.73238213
Si       3.72569456       7.90638510       2.33434482
Si       3.29419925       7.26519559      -1.24702622
Si       1.03588964       2.27731045       5.31375318
16
Lattice="5.394581066513307 -0.18315796918290603 -2.9352832603535624 0.6635347788646666 8.426019262938945 -0.37492027320075605 -1.7398889537465212 1.2972802082193242 7.378574678018459" Properties=species:S:1:pos:R:3 unique_starting_index=30 config_type=initial n_minim_iter=18 stress="-0.00021517389618645071 -0.0003767180954885163 -0.00018096714896870605 -0.0003767180954885163 0.00018155089081776625 0.00014173662877334505 -0.00018096714896870605 0.00014173662877334505 -8.125963113529292e-05" pbc="T T T"
Si       1.32225829       7.78490212       1.97406475
Si       2.99596861       1.75523938       2.09430640
Si       1.91679344       4.49986569       0.60478060
Si       2.40143345       5.04027581       3.46359054
Si       3.00108905       2.86693212       4.18258693
Si       1.31713784       6.67320938      -0.11421579
Si       3.81550694       4.97544179      -1.96231789
Si       0.50271995       4.56469971       6.03068904
Si       0.27826162       4.59618020       2.39230057
Si       4.03996527       4.94396131       1.67607057
Si       4.88733442       6.89390226       0.45086308
Si      -0.56910753       2.64623924       3.61750806
Si       0.60515197       1.63504544       1.73615604
Si       3.71307492       7.90509606       2.33221511
Si       3.28674319       7.26153537      -1.24236283
Si       1.03148370       2.27860614       5.31073398
16
Lattice="5.392680985682762 -0.17533951891802443 -2.932047052968249 0.6736505510741041 8.429586593436948 -0.377277471496795 -1.7338809556731742 1.2929212456099974 7.377239097792785" Properties=species:S:1:pos:R:3 unique_starting_index=30 config_type=initial n_minim_iter=19 stress="4.0471571773845256e-05 0.00012353739805685848 6.086108673844753e-05 0.00012353739805685848 -4.017489232957855e-05 -2.2834882306547998e-05 6.086108673844753e-05 -2.2834882306547998e-05 -2.9363118306901642e-05" pbc="T T T"
Si       1.33209916       7.78773998       1.97166247
Si       3.00035142       1.75942834       2.09625210
Si       1.92489665       4.50460440       0.60308215
Si       2.40755394       5.04256392       3.46483243
Si       3.00956942       2.87140031       4.18571796
Si       1.32288116       6.67576801      -0.11780338
Si       3.82236849       4.98050672      -1.96260133
Si       0.51008209       4.56666160       6.03051590
Si       0.28362629       4.59591045       2.39189826
Si       4.04882429       4.95125787       1.67601631
Si       4.89641917       6.90046171       0.45348958
Si      -0.56396859       2.64670661       3.61442500
Si       0.61141391       1.63386525       1.73772309
Si       3.72103667       7.91330307       2.33019148
Si       3.29439918       7.26826026      -1.24186761
Si       1.03805140       2.27890806       5.30978219
16
Lattice="5.392434765013481 -0.18026947503190593 -2.933531255469202 0.6654541257385886 8.429592654740269 -0.3789413269668957 -1.735912013260444 1.2934753575736584 7.379185611794218" Properties=species:S:1:pos:R:3 unique_starting_index=30 config_type=initial n_minim_iter=20 stress="1.0488382183134168e-05 -0.00010555462846281346 -0.0001243238099389 -0.00010555462846281346 -3.738947167860736e-05 2.4639654896802477e-05 -0.0001243238099389 2.4639654896802477e-05 0.00030368981759110045" pbc="T T T"
Si       1.32297768       7.78494689       1.96870455
Si       2.99899920       1.75785165       2.09800848
Si       1.91943309       4.50441449       0.60232206
Si       2.40254379       5.03838405       3.46439097
Si       3.00790743       2.86894865       4.18728002
Si       1.31406945       6.67384989      -0.12056699
Si       3.81970520       4.97928082      -1.96369184
Si       0.50227167       4.56351771       6.03040487
Si       0.27866135       4.59540602       2.39273886
Si       4.04331552       4.94739252       1.67397417
Si       4.88991624       6.89540065       0.45330823
Si      -0.56793937       2.64739788       3.61340480
Si       0.61155063       1.63145459       1.73846928
Si       3.71042625       7.91134395       2.32824375
Si       3.28800356       7.26449013      -1.24352250
Si       1.03397331       2.27830841       5.31023553
16
Lattice="5.391353364166792 -0.18117830772576343 -2.9313098583698345 0.6647472690148748 8.432673617327143 -0.37759778555215145 -1.734447603493974 1.295132696118114 7.375921158072539" Properties=species:S:1:pos:R:3 unique_starting_index=30 config_type=initial n_minim_iter=21 stress="-9.584197452062461e-07 -3.9241135886161196e-05 -5.948833366874402e-05 -3.9241135886161196e-05 -1.833035136661853e-05 -9.563176655651079e-06 -5.948833366874402e-05 -9.563176655651079e-06 7.493819654376246e-05" pbc="T T T"
Si       1.32190762       7.78642132       1.96783756
Si       2.99974541       1.76020668       2.09917595
Si       1.91831789       4.50735476       0.60251795
Si       2.40333514       5.03927324       3.46449557
Si       3.01017008       2.87088551       4.18772314
Si       1.31148295       6.67574249      -0.12070962
Si       3.81982005       4.98154724      -1.96158445
Si       0.50183298       4.56508076       6.02859796
Si       0.27896124       4.59706444       2.39271431
Si       4.04269179       4.94956357       1.67429921
Si       4.88934549       6.89806716       0.45620050
Si      -0.56769246       2.64856085       3.61081301
Si       0.61325800       1.63122175       1.73891300
Si       3.70839503       7.91540626       2.32810051
Si       3.28728877       7.26720269      -1.24181455
Si       1.03436426       2.27942531       5.30882807
