24
Lattice="8.56314235478247 1.412203687323199e-13 -2.1168475933874466e-14 4.281571177391111 7.415898815464186 1.0953831957081049e-14 4.28157117739121 2.471966271821424 6.865316846356526" Properties=species:S:1:pos:R:3 unique_starting_index=24 config_type=initial n_minim_iter=1 energy=-3905.2735128757913 free_energy=-3905.2735128757913 pbc="T T T"
Si       9.13214757       3.35492330       6.24925242
Si       9.65476126       6.23121014       6.24925242
Si       6.90251694       5.24566345       6.24925242
Si       9.90986798       4.35136595       4.20516483
Si       8.40295642       6.40651445       4.20516483
Si       7.37660139       4.07391650       4.20516483
Si      10.47655647       5.26635044       0.74602562
Si       7.32721235       6.43978883       0.74602562
Si       7.88565696       3.12565763       0.74602562
Si       9.24642129       6.83611110       2.04454982
Si       6.58282734       4.58958018       2.04454982
Si       9.86017716       3.40610561       2.04454982
Si      11.44401892       7.79874502       5.46144730
Si       4.65036310       6.01143860       5.46144730
Si       9.59504377       1.02161328       5.46144730
Si      11.60658111       3.42244661       6.92013216
Si       8.35906759       8.34037079       6.92013216
Si       5.72377708       3.06897949       6.92013216
Si      10.11992674       9.58736407       4.40737379
Si       3.76341965       3.97043161       4.40737379
Si      11.80607940       1.27400122       4.40737379
Si       5.55168111       1.68396492       1.91945066
Si       4.32894455       3.96591442       1.91945066
Si       2.96408659       1.76601874       1.91945066
24
Lattice="8.58519775945622 1.400529471930674e-13 -2.1217108399599767e-14 4.292598879727985 7.4349993562024 1.097161587186544e-14 4.292598879728087 2.4783331187341617 6.823435483814437" Properties=species:S:1:pos:R:3 unique_starting_index=24 config_type=initial n_minim_iter=2 stress="0.0014905307456479855 2.1309937640076844e-16 2.431779965147525e-16 2.1309937640076844e-16 0.0014905307456477897 -1.0871636846283223e-16 2.431779965147525e-16 -1.0871636846283223e-16 -0.004082432021470393" pbc="T T T"
Si       9.15752183       3.36674607       6.21210262
Si       9.67594613       6.24727351       6.21210262
Si       6.92212404       5.25597840       6.21210262
Si       9.93405052       4.36269963       4.17394991
Si       8.42516070       6.42179030       4.17394991
Si       7.39638078       4.08550805       4.17394991
Si      10.50079996       5.28125584       0.74382914
Si       7.34629296       6.45333160       0.74382914
Si       7.90849907       3.13541053       0.74382914
Si       9.27323285       6.84966443       2.03606655
Si       6.60179484       4.60602301       2.03606655
Si       9.88056431       3.41431054       2.03606655
Si      11.47370693       7.81884177       5.43320275
Si       4.66222560       6.02710079       5.43320275
Si       9.61965947       1.02405542       5.43320275
Si      11.63827980       3.42705340       6.87226441
Si       8.38333946       8.36551926       6.87226441
Si       5.73397274       3.07742531       6.87226441
Si      10.14804611       9.61101325       4.38108099
Si       3.77298997       3.98295911       4.38108099
Si      11.83455591       1.27602561       4.38108099
Si       5.57087144       1.68612536       1.90597087
Si       4.33953379       3.98145351       1.90597087
Si       2.96739012       1.76741975       1.90597087
24
Lattice="8.56287070707615 1.4253920317285928e-13 -2.1158805595600222e-14 4.281435353537947 7.415663561649639 1.0956593198853608e-14 4.2814353535380505 2.471887853883241 6.88858597418268" Properties=species:S:1:pos:R:3 unique_starting_index=24 config_type=initial n_minim_iter=3 stress="0.002351657936889369 4.441695586089628e-17 1.7716020109088914e-16 4.441695586089628e-17 0.002351657936888979 -9.644824701223192e-18 1.7716020109088914e-16 -9.644824701223192e-18 0.0006609753294916787" pbc="T T T"
Si       9.13921502       3.36719195       6.27432870
Si       9.64005929       6.23119640       6.27432870
Si       6.90933654       5.23293804       6.27432870
Si       9.90469486       4.35239181       4.19838732
Si       8.40411126       6.40152146       4.19838732
Si       7.37980472       4.07741311       4.19838732
Si      10.46659558       5.27116226       0.75861792
Si       7.32748235       6.42875653       0.75861792
Si       7.89453291       3.13140760       0.75861792
Si       9.25850682       6.82108960       2.06642734
Si       6.58925028       4.60755731       2.06642734
Si       9.84085374       3.40267948       2.06642734
Si      11.44456669       7.79815692       5.49946869
Si       4.65005522       6.01220703       5.49946869
Si       9.59398893       1.02096244       5.49946869
Si      11.61388943       3.40619231       6.92100621
Si       8.36894678       8.35482713       6.92100621
Si       5.70577464       3.07030695       6.92100621
Si      10.12803112       9.58313450       4.42508648
Si       3.76248708       3.97956499       4.42508648
Si      11.79809264       1.26862690       4.42508648
Si       5.57015719       1.67460432       1.91837597
Si       4.32754137       3.98659547       1.91837597
Si       2.94660622       1.75446303       1.91837597
24
Lattice="8.535627618418514 1.4257174853752995e-13 -2.0898334988411436e-14 4.2678138092091285 7.392070354794576 1.0960172997669145e-14 4.267813809209233 2.4640234515982202 6.8874508000590655" Properties=species:S:1:pos:R:3 unique_starting_index=24 config_type=initial n_minim_iter=4 stress="-0.0009374384341480928 -1.2211754511371169e-16 1.9671654756811299e-16 -1.2211754511371169e-16 -0.0009374384341478311 1.3386944276063794e-16 1.9671654756811299e-16 1.3386944276063794e-16 -0.0016591161212920718" pbc="T T T"
Si       9.11141526       3.35879389       6.27375845
Si       9.60674593       6.21132014       6.27375845
Si       6.88872040       5.21402595       6.27375845
Si       9.87229242       4.33873316       4.19482421
Si       8.37765504       6.38028945       4.19482421
Si       7.35693412       4.06511736       4.19482421
Si      10.43223248       5.25489094       0.76010635
Si       7.30426910       6.40713288       0.76010635
Si       7.87038000       3.12211616       0.76010635
Si       9.23110731       6.79749539       2.06822139
Si       6.56889704       4.59562575       2.06822139
Si       9.80687722       3.39101884       2.06822139
Si      11.40831677       7.77328228       5.50190671
Si       4.63523608       5.99325100       5.50190671
Si       9.56332873       1.01760669       5.50190671
Si      11.57833105       3.39312610       6.91605506
Si       8.34355546       8.33056577       6.91605506
Si       5.68499507       3.06044811       6.91605506
Si      10.09721701       9.55202400       4.42470322
Si       3.75035044       3.96843443       4.42470322
Si      11.75931413       1.26368154       4.42470322
Si       5.55532688       1.66780599       1.91683977
Si       4.31360097       3.97715121       1.91683977
Si       2.93451230       1.74711241       1.91683977
24
Lattice="8.517123033515478 1.4392094261568112e-13 -2.08475600940949e-14 4.25856151675761 7.3760449141820645 1.094326438138797e-14 4.258561516757715 2.458681638060716 6.959076701296922" Properties=species:S:1:pos:R:3 unique_starting_index=24 config_type=initial n_minim_iter=5 stress="0.0004683217653081294 1.1884693507357063e-16 3.331777325139416e-16 1.1884693507357063e-16 0.0004683217653083894 5.523335123611456e-17 3.331777325139416e-16 5.523335123611456e-17 0.0026902604508741513" pbc="T T T"
Si       9.10077781       3.37173904       6.34089744
Si       9.56384465       6.19563527       6.34089744
Si       6.88674536       5.18471479       6.34089744
Si       9.84399182       4.33011515       4.22479086
Si       8.36225959       6.36008941       4.22479086
Si       7.34511642       4.06188453       4.22479086
Si      10.40826865       5.24215496       0.77818680
Si       7.29027153       6.39274758       0.77818680
Si       7.85282765       3.11718656       0.77818680
Si       9.22564041       6.77552538       2.10176372
Si       6.55364791       4.60187627       2.10176372
Si       9.77207951       3.37468745       2.10176372
Si      11.38536441       7.75584316       5.58432377
Si       4.62480581       5.98209324       5.58432377
Si       9.54119760       1.01415270       5.58432377
Si      11.56410953       3.37550790       6.95972687
Si       8.32891486       8.32705867       6.95972687
Si       5.65834344       3.04952252       6.95972687
Si      10.08460841       9.52705939       4.47106158
Si       3.74126556       3.96999738       4.47106158
Si      11.72549386       1.25503233       4.47106158
Si       5.56249319       1.65637243       1.92903414
Si       4.30141499       3.98907420       1.92903414
Si       2.91177510       1.73059755       1.92903414
24
Lattice="8.50460187926965 1.4120571325305153e-13 -2.0771191949504448e-14 4.252300939634703 7.36520127652048 1.0822269101631664e-14 4.252300939634805 2.45506709217352 6.9822683472099385" Properties=species:S:1:pos:R:3 unique_starting_index=24 config_type=initial n_minim_iter=6 stress="0.000199313421487553 2.480102612419214e-16 4.977974639666406e-16 2.480102612419214e-16 0.00019931342148787795 1.5027847968804244e-16 4.977974639666406e-16 1.5027847968804244e-16 0.0008433964831320971" pbc="T T T"
Si       9.10175835       3.40891951       6.36051731
Si       9.50611284       6.17789420       6.36051731
Si       6.90593317       5.14358811       6.36051731
Si       9.81847108       4.32179975       4.24310205
Si       8.35717900       6.34214551       4.24310205
Si       7.33815429       4.06645656       4.24310205
Si      10.41331958       5.21407611       0.79261747
Si       7.28702076       6.41116124       0.79261747
Si       7.81346403       3.10516448       0.79261747
Si       9.23364924       6.77623384       2.11255171
Si       6.52398764       4.60845789       2.11255171
Si       9.75616748       3.34571009       2.11255171
Si      11.37173558       7.74338300       5.64640617
Si       4.61736873       5.97652040       5.64640617
Si       9.52470005       1.01049842       5.64640617
Si      11.56721995       3.37651536       6.93639323
Si       8.30144486       8.32924865       6.93639323
Si       5.64513956       3.02463781       6.93639323
Si      10.08131862       9.50689427       4.47837473
Si       3.73533165       3.97723090       4.47837473
Si      11.69715409       1.24627665       4.47837473
Si       5.57563594       1.65493816       1.92776389
Si       4.28356458       4.00117329       1.92776389
Si       2.89770103       1.70908910       1.92776389
24
Lattice="8.491237033026117 1.3665476115345318e-13 -2.076930781235821e-14 4.24561851651294 7.353626980155903 1.0907694742931325e-14 4.245618516513039 2.451208993385326 7.0031258671550525" Properties=species:S:1:pos:R:3 unique_starting_index=24 config_type=initial n_minim_iter=7 stress="-0.00016021697177180742 9.82554620700615e-17 5.669365550450835e-16 9.82554620700615e-17 -0.00016021697177180742 1.108230211720461e-16 5.669365550450835e-16 1.108230211720461e-16 -0.0007615174834496237" pbc="T T T"
Si       9.09842046       3.43315404       6.38145579
Si       9.46006438       6.16288623       6.38145579
Si       6.91522499       5.11121296       6.38145579
Si       9.79673383       4.31185918       4.25524693
Si       8.34992672       6.32829078       4.25524693
Si       7.32704928       4.06710327       4.25524693
Si      10.41207579       5.18924823       0.80705657
Si       7.28241453       6.42249802       0.80705657
Si       7.77921951       3.09550697       0.80705657
Si       9.23614933       6.77076066       2.12121418
Si       6.50074782       4.61335962       2.12121418
Si       9.73681268       3.32313295       2.12121418
Si      11.35524701       7.73019599       5.69620417
Si       4.61030361       5.96883438       5.69620417
Si       9.50815921       1.00822285       5.69620417
Si      11.56450503       3.37688105       6.91999483
Si       8.27575593       8.32671461       6.91999483
Si       5.63344887       3.00365757       6.91999483
Si      10.07377811       9.48638729       4.48483218
Si       3.73013178       3.98095411       4.48483218
Si      11.66979993       1.23991183       4.48483218
Si       5.58177043       1.65826416       1.92879955
Si       4.26425208       4.00482292       1.92879955
Si       2.89083176       1.69053917       1.92879955
24
Lattice="8.460239221058066 1.351301565894373e-13 -2.052659455402089e-14 4.230119610528915 7.326782087529836 1.0938241729962925e-14 4.230119610529013 2.442260695843302 7.05996215937122" Properties=species:S:1:pos:R:3 unique_starting_index=24 config_type=initial n_minim_iter=8 stress="-0.0001985066005120519 -1.6693132165563676e-16 6.225675734695024e-16 -1.6693132165563676e-16 -0.00019850660051159728 2.3124300864606825e-16 6.225675734695024e-16 2.3124300864606825e-16 -0.0019582851163177963" pbc="T T T"
Si       9.08644461       3.47097174       6.44322673
Si       9.37130559       6.13360599       6.44322673
Si       6.92296620       5.04898571       6.44322673
Si       9.75297439       4.28614789       4.28252017
Si       8.33207744       6.30324964       4.28252017
Si       7.29566456       4.06416592       4.28252017
Si      10.40352076       5.13554709       0.84262479
Si       7.27120298       6.44193972       0.84262479
Si       7.70599266       3.07607664       0.84262479
Si       9.23691016       6.75183125       2.14095250
Si       6.45476514       4.62348323       2.14095250
Si       9.68904110       3.27824897       2.14095250
Si      11.31413371       7.70001467       5.80473935
Si       4.59500243       5.94831988       5.80473935
Si       9.47158026       1.00522889       5.80473935
Si      11.55212235       3.37953398       6.90158692
Si       8.21765415       8.31466444       6.90158692
Si       5.61093990       2.95936503       6.90158692
Si      10.05144890       9.43911295       4.50492697
Si       3.72024154       3.98525362       4.50492697
Si      11.60902595       1.22919688       4.50492697
Si       5.58583699       1.67508556       1.93876117
Si       4.21665324       3.99993396       1.93876117
Si       2.88786734       1.65176184       1.93876117
24
Lattice="8.423535371324046 1.3336738585482508e-13 -2.0477422724287375e-14 4.211767685661906 7.294995621243484 1.085997224896141e-14 4.211767685662005 2.4316652070811853 7.121148254918832" Properties=species:S:1:pos:R:3 unique_starting_index=24 config_type=initial n_minim_iter=9 stress="3.665612250228708e-05 -2.7045683888837635e-16 7.225713669363e-16 -2.7045683888837635e-16 3.665612250228708e-05 1.6744982520293469e-16 7.225713669363e-16 1.6744982520293469e-16 -0.0017267885839893499" pbc="T T T"
Si       9.06737554       3.49202409       6.51645490
Si       9.28920056       6.10656552       6.51645490
Si       6.91402875       4.99140091       6.51645490
Si       9.70832815       4.25158023       4.30681137
Si       8.31092935       6.28186869       4.30681137
Si       7.25134736       4.05654160       4.30681137
Si      10.38902826       5.07569538       0.88482278
Si       7.25687463       6.45931470       0.88482278
Si       7.62470196       3.05498044       0.88482278
Si       9.23315255       6.72494150       2.15743197
Si       6.40652345       4.63367391       2.15743197
Si       9.63092886       3.23137510       2.15743197
Si      11.26141524       7.66558661       5.91025607
Si       4.57776955       5.91987838       5.91025607
Si       9.43142007       1.00452553       5.91025607
Si      11.53015316       3.38819556       6.88791537
Si       8.14772989       8.29130776       6.88791537
Si       5.59272180       2.91048719       6.88791537
Si      10.01832511       9.38324350       4.52343546
Si       3.71178011       3.98450230       4.52343546
Si      11.54049964       1.22224472       4.52343546
Si       5.57615035       1.70743484       1.95699049
Si       4.15677741       3.97537043       1.95699049
Si       2.90237404       1.61218962       1.95699049
24
Lattice="8.40055974749599 1.341663349490435e-13 -2.0306923654417164e-14 4.200279873747876 7.275098147340592 1.0890676922079232e-14 4.200279873747977 2.4250327157802203 7.148739538329187" Properties=species:S:1:pos:R:3 unique_starting_index=24 config_type=initial n_minim_iter=10 stress="0.00046143403270909014 -3.3848380854381487e-16 6.33259497666056e-16 -3.3848380854381487e-16 0.00046143403270909014 1.529784179755079e-16 6.33259497666056e-16 1.529784179755079e-16 -0.0006507613976303548" pbc="T T T"
Si       9.05181415       3.48341239       6.55644927
Si       9.25848796       6.09739481       6.55644927
Si       6.89137587       4.96938837       6.55644927
Si       9.68516276       4.22577257       4.31218064
Si       8.29891088       6.27471071       4.31218064
Si       7.21760434       4.04971229       4.31218064
Si      10.37687784       5.04179275       0.91053379
Si       7.24635914       6.46574345       0.91053379
Si       7.57844101       3.04265937       0.91053379
Si       9.22947333       6.70501199       2.16077008
Si       6.37967128       4.64045237       2.16077008
Si       9.59253338       3.20473121       2.16077008
Si      11.22446464       7.64583894       5.95081443
Si       4.56739559       5.89775205       5.95081443
Si       9.40981776       1.00660458       5.95081443
Si      11.51064771       3.39939709       6.88138743
Si       8.10183057       8.26881478       6.88138743
Si       5.58919971       2.88198370       6.88138743
Si       9.99164006       9.34786999       4.52700199
Si       3.70980575       3.97907912       4.52700199
Si      11.50023218       1.22324646       4.52700199
Si       5.55729041       1.73806404       1.97339949
Si       4.11670609       3.94372265       1.97339949
Si       2.92684186       1.59331073       1.97339949
24
Lattice="8.378141581284869 1.3740807890538119e-13 -2.0243460823674715e-14 4.1890707906423135 7.2556834458955 1.0872540365492168e-14 4.189070790642417 2.418561148631858 7.165956799055904" Properties=species:S:1:pos:R:3 unique_starting_index=24 config_type=initial n_minim_iter=11 stress="-0.00011609769033137949 -2.660789516631422e-16 7.301879276962666e-16 -2.660789516631422e-16 -0.00011609769033177095 1.9675569988883695e-16 7.301879276962666e-16 1.9675569988883695e-16 0.0002789183019373808" pbc="T T T"
Si       9.03227402       3.45946183       6.58258701
Si       9.24416349       6.09244784       6.58258701
Si       6.85798598       4.95945650       6.58258701
Si       9.66049149       4.20328473       4.30818719
Si       8.28588523       6.26458868       4.30818719
Si       7.18804677       4.04349276       4.30818719
Si      10.35317697       5.02269519       0.92764065
Si       7.22991221       6.45476667       0.92764065
Si       7.55133431       3.03390431       0.92764065
Si       9.22336825       6.68176601       2.16674286
Si       6.35801909       4.64678821       2.16674286
Si       9.55303615       3.18281195       2.16674286
Si      11.18790317       7.62850034       5.96668354
Si       4.55585566       5.87475819       5.96668354
Si       9.39066466       1.00810764       5.96668354
Si      11.48507301       3.40152484       6.88221673
Si       8.06793890       8.24560257       6.88221673
Si       5.58141158       2.86423876       6.88221673
Si       9.96295354       9.31588081       4.53115545
Si       3.70701612       3.97023046       4.53115545
Si      11.46445383       1.22525491       4.53115545
Si       5.53656897       1.75556141       1.98745838
Si       4.08949549       3.91702867       1.98745838
Si       2.94114666       1.58309265       1.98745838
24
Lattice="8.358745304831821 1.4200525051121282e-13 -2.0529827775260834e-14 4.179372652415785 7.2388857777483375 1.0915153326737174e-14 4.179372652415893 2.4129619259161394 7.188020871007974" Properties=species:S:1:pos:R:3 unique_starting_index=24 config_type=initial n_minim_iter=12 stress="-4.2363078477516275e-05 -2.3177891881170356e-16 8.513025266927657e-16 -2.3177891881170356e-16 -4.236307847777766e-05 2.2207892000680847e-17 8.513025266927657e-16 2.2207892000680847e-17 0.000928826656406181" pbc="T T T"
Si       9.02047391       3.43033645       6.61051513
Si       9.23649431       6.09679134       6.61051513
Si       6.81926644       4.95064304       6.61051513
Si       9.62859391       4.17661445       4.30173672
Si       8.28613861       6.25029971       4.30173672
Si       7.16150214       4.05085668       4.30173672
Si      10.33467489       5.00556270       0.95172706
Si       7.21520787       6.44730964       0.95172706
Si       7.52635190       3.02489849       0.95172706
Si       9.24376178       6.66472807       2.18374228
Si       6.32378507       4.67296849       2.18374228
Si       9.50868781       3.14007428       2.18374228
Si      11.15214534       7.61938880       5.99090393
Si       4.54283285       5.84834677       5.99090393
Si       9.38125648       1.01003527       5.99090393
Si      11.47010949       3.40633165       6.87239396
Si       8.03246529       8.23024038       6.87239396
Si       5.57365988       2.84119880       6.87239396
Si       9.93928642       9.28339965       4.53913559
Si       3.70818664       3.96597471       4.53913559
Si      11.42876161       1.22839648       4.53913559
Si       5.52479586       1.77031410       2.00521043
Si       4.06320956       3.89945652       2.00521043
Si       2.95011128       1.56911444       2.00521043
24
Lattice="8.382686639079125 1.4189446854466568e-13 -2.087723361172815e-14 4.1913433195394365 7.259619581406994 1.1043967155254505e-14 4.191343319539542 2.419873193802358 7.158988087836673" Properties=species:S:1:pos:R:3 unique_starting_index=24 config_type=initial n_minim_iter=13 stress="0.001753745174207241 -1.1187318826421593e-16 4.773086141660055e-16 -1.1187318826421593e-16 0.00175374517420698 2.4158492590996967e-16 4.773086141660055e-16 2.4158492590996967e-16 -0.00026306233350794316" pbc="T T T"
Si       9.04502551       3.41612297       6.56655219
Si       9.28441041       6.12516038       6.56655219
Si       6.81862275       4.97795509       6.56655219
Si       9.63726532       4.17864678       4.30165570
Si       8.32792552       6.25679320       4.30165570
Si       7.18286783       4.08379846       4.30165570
Si      10.37195053       5.01704673       0.94346533
Si       7.23450725       6.47384928       0.94346533
Si       7.54160088       3.02834243       0.94346533
Si       9.30016658       6.70784373       2.18148212
Si       6.30612608       4.70025865       2.18148212
Si       9.54176601       3.11113606       2.18148212
Si      11.17964097       7.65465345       5.95078933
Si       4.54642761       5.85452637       5.95078933
Si       9.42199008       1.01005863       5.95078933
Si      11.50473052       3.42755080       6.84777608
Si       8.04466111       8.24961349       6.84777608
Si       5.59866703       2.84207414       6.84777608
Si       9.96394491       9.31126128       4.52298041
Si       3.71961118       3.97339878       4.52298041
Si      11.46450257       1.23457839       4.52298041
Si       5.54322092       1.76379100       2.00553603
Si       4.08358753       3.91867463       2.00553603
Si       2.94722026       1.57715322       2.00553603
24
Lattice="8.35566007468795 1.412629870090141e-13 -2.0982933115450527e-14 4.177830037343851 7.236213890067218 1.1308938353682699e-14 4.177830037343955 2.412071296689099 7.199241254887013" Properties=species:S:1:pos:R:3 unique_starting_index=24 config_type=initial n_minim_iter=14 stress="0.0007887293282794445 -9.079905763917491e-17 6.409495276608049e-16 -9.079905763917491e-17 0.0007887293282786609 2.165404492574705e-16 6.409495276608049e-16 2.165404492574705e-16 0.0004524777631848033" pbc="T T T"
Si       9.02628568       3.42018699       6.60411831
Si       9.23620766       6.10689920       6.60411831
Si       6.80448564       4.94534087       6.60411831
Si       9.59627670       4.15621727       4.32065598
Si       8.31379123       6.23251078       4.32065598
Si       7.15691104       4.08369902       4.32065598
Si      10.35023289       4.98521498       0.96506165
Si       7.21888005       6.47095713       0.96506165
Si       7.49786603       3.01625495       0.96506165
Si       9.29806260       6.69003782       2.20095443
Si       6.26854531       4.70733951       2.20095443
Si       9.50037106       3.07504973       2.20095443
Si      11.14262148       7.63415032       6.01127085
Si       4.52864047       5.83271810       6.01127085
Si       9.39571703       1.00555864       6.01127085
Si      11.48271357       3.42242935       6.84811723
Si       8.00605177       8.23310698       6.84811723
Si       5.57821363       2.81689073       6.84811723
Si       9.93895908       9.27578518       4.54152460
Si       3.70877417       3.96949846       4.54152460
Si      11.41924573       1.22714342       4.54152460
Si       5.54117041       1.76450387       2.01588534
Si       4.05696886       3.91654241       2.01588534
Si       2.93534959       1.55516689       2.01588534
24
Lattice="8.304047891532335 1.372925273795744e-13 -2.1303229624465098e-14 4.152023945766044 7.19151642830967 1.2098495404277103e-14 4.152023945766145 2.397172142769917 7.202268997861286" Properties=species:S:1:pos:R:3 unique_starting_index=24 config_type=initial n_minim_iter=15 stress="-0.005115422935566604 -4.8785681267278625e-17 6.530570032074864e-16 -4.8785681267278625e-17 -0.005115422935567463 4.27713618306247e-16 6.530570032074864e-16 4.27713618306247e-16 -0.0024509540820707204" pbc="T T T"
Si       8.96434120       3.38051388       6.59153686
Si       9.19831346       6.07309027       6.59153686
Si       6.74948778       4.92942799       6.59153686
Si       9.53189595       4.10982198       4.32944913
Si       8.28293674       6.19995305       4.32944913
Si       7.09730974       4.07325711       4.32944913
Si      10.28608696       4.93924437       0.97440060
Si       7.18754037       6.43839043       0.97440060
Si       7.43851510       3.00539734       0.97440060
Si       9.25661126       6.64377186       2.20536641
Si       6.22611412       4.69457457       2.20536641
Si       9.42941705       3.04468571       2.20536641
Si      11.07541797       7.60271346       6.00064005
Si       4.48624298       5.79023660       6.00064005
Si       9.35048148       0.99008209       6.00064005
Si      11.40892361       3.40553803       6.86242463
Si       7.95435070       8.17764866       6.86242463
Si       5.54886812       2.79984545       6.86242463
Si       9.87894699       9.23065986       4.53450818
Si       3.67463553       3.94008913       4.53450818
Si      11.35855991       1.21228316       4.53450818
Si       5.51711922       1.75695213       2.02335462
Si       4.02392228       3.89948934       2.02335462
Si       2.91502909       1.53507425       2.02335462
24
Lattice="8.282025528332083 1.368948148554938e-13 -2.276972969081699e-14 4.141012764165919 7.172444502326883 1.3505759276054325e-14 4.141012764166019 2.39081483410899 7.2402675251184245" Properties=species:S:1:pos:R:3 unique_starting_index=24 config_type=initial n_minim_iter=16 stress="-0.003832444831791278 -3.0305395201664204e-16 5.395083132153168e-16 -3.0305395201664204e-16 -0.0038324448317926 6.959399102528678e-16 5.395083132153168e-16 6.959399102528678e-16 -0.001609859121477417" pbc="T T T"
Si       8.93259558       3.34762483       6.59237734
Si       9.19862430       6.06204228       6.59237734
Si       6.71485547       4.93522118       6.59237734
Si       9.48926635       4.04340230       4.35950895
Si       8.31772795       6.19624458       4.35950895
Si       7.03908105       4.10524142       4.35950895
Si      10.26559025       4.87711080       1.01344465
Si       7.20755326       6.45170655       1.01344465
Si       7.37293184       3.01607095       1.01344465
Si       9.28686704       6.61088944       2.23087127
Si       6.19541851       4.73721806       2.23087127
Si       9.36378979       2.99678079       2.23087127
Si      11.05122413       7.62282792       6.02844581
Si       4.43687554       5.75922688       6.02844581
Si       9.35797568       0.96283349       6.02844581
Si      11.38326149       3.40733900       6.89684528
Si       7.92157735       8.15452413       6.89684528
Si       5.54123651       2.78302516       6.89684528
Si       9.86467913       9.23317418       4.53187933
Si       3.63554727       3.92647563       4.53187933
Si      11.34584895       1.18523847       4.53187933
Si       5.54104914       1.76389973       2.04516523
Si       3.98391816       3.91673946       2.04516523
Si       2.89806975       1.49180461       2.04516523
24
Lattice="8.31440913295833 1.4017766947735485e-13 -2.3612972328415768e-14 4.157204566479042 7.200489526599324 1.4650831074458547e-14 4.157204566479143 2.4001631755331396 7.2332162271642435" Properties=species:S:1:pos:R:3 unique_starting_index=24 config_type=initial n_minim_iter=17 stress="6.965056027629475e-05 -1.1229475656983365e-16 6.109552623422685e-16 -1.1229475656983365e-16 6.965056027504771e-05 6.196722069161825e-16 6.109552623422685e-16 6.196722069161825e-16 0.0007867348334977247" pbc="T T T"
Si       8.96268619       3.35853838       6.58525131
Si       9.23889478       6.08264474       6.58525131
Si       6.74164518       4.95979522       6.58525131
Si       9.52666711       4.06388326       4.35251017
Si       8.34605774       6.21839410       4.35251017
Si       7.07050130       4.11870098       4.35251017
Si      10.29676805       4.90436153       1.00324591
Si       7.23313174       6.46508194       1.00324591
Si       7.41332637       3.03153486       1.00324591
Si       9.31331532       6.63344651       2.22974036
Si       6.22742658       4.74884441       2.22974036
Si       9.40248425       3.01868742       2.22974036
Si      11.09641262       7.65295620       6.01582433
Si       4.45295664       5.78329712       6.01582433
Si       9.39385689       0.96472501       6.01582433
Si      11.42156102       3.41186757       6.90507158
Si       7.96327294       8.18542821       6.90507158
Si       5.55839220       2.80368256       6.90507158
Si       9.90267458       9.27358577       4.53330746
Si       3.64631929       3.93917487       4.53330746
Si      11.39423229       1.18821770       4.53330746
Si       5.55965338       1.76000049       2.04076774
Si       4.01037648       3.93480082       2.04076774
Si       2.90158259       1.50568750       2.04076774
24
Lattice="8.33623725929684 1.3843018013957945e-13 -2.4663878128605997e-14 4.168118629648298 7.21939323852549 1.5632844490363308e-14 4.1681186296484 2.406464412841862 7.235175167242502" Properties=species:S:1:pos:R:3 unique_starting_index=24 config_type=initial n_minim_iter=18 stress="0.003952386419383836 -1.9071814438550436e-16 4.614971140879184e-16 -1.9071814438550436e-16 0.003952386419383249 6.07085430189687e-16 4.614971140879184e-16 6.07085430189687e-16 0.0013260560988847532" pbc="T T T"
Si       8.98614911       3.36938785       6.59063924
Si       9.26142366       6.09753948       6.59063924
Si       6.76113776       4.97185843       6.59063924
Si       9.53821610       4.05919369       4.33808069
Si       8.38800078       6.23074061       4.33808069
Si       7.08249365       4.14885146       4.33808069
Si      10.32703629       4.90077484       1.00927739
Si       7.26476003       6.49308835       1.00927739
Si       7.41691421       3.04492257       1.00927739
Si       9.36508273       6.65069966       2.23587024
Si       6.23025747       4.78504972       2.23587024
Si       9.41337033       3.00303638       2.23587024
Si      11.12545445       7.68873907       6.03539870
Si       4.45110311       5.79055665       6.03539870
Si       9.43215297       0.95949004       6.03539870
Si      11.45669274       3.42232285       6.89002798
Si       7.98030879       8.21062553       6.89002798
Si       5.57170900       2.80583738       6.89002798
Si       9.93391270       9.30331549       4.53114640
Si       3.64860978       3.95136302       4.53114640
Si      11.42618804       1.18410725       4.53114640
Si       5.57851830       1.76737848       2.04439577
Si       4.01638262       3.94744933       2.04439577
Si       2.90945372       1.50456472       2.04439577
24
Lattice="8.30663999767255 1.3623221857534204e-13 -2.5963210494324483e-14 4.153319998836156 7.193761258076399 1.7265225475555248e-14 4.153319998836257 2.3979204193588335 7.236434625217154" Properties=species:S:1:pos:R:3 unique_starting_index=24 config_type=initial n_minim_iter=19 stress="0.0008394988764821587 -4.056591386731123e-17 5.971918712364931e-16 -4.056591386731123e-17 0.0008394988764813042 9.273676005615705e-16 5.971918712364931e-16 9.273676005615705e-16 -0.0008304545059004696" pbc="T T T"
Si       8.92887856       3.34212641       6.58048535
Si       9.25447352       6.06157246       6.58048535
Si       6.73656667       4.98382293       6.58048535
Si       9.47558123       4.00440518       4.32442708
Si       8.40757194       6.20389147       4.32442708
Si       7.03676558       4.17922515       4.32442708
Si      10.27922687       4.84482735       0.99664424
Si       7.27792217       6.47965792       0.99664424
Si       7.36276971       3.06303652       0.99664424
Si       9.36442676       6.62008276       2.23498509
Si       6.19790595       4.79979009       2.23498509
Si       9.35758604       2.96764896       2.23498509
Si      11.09565589       7.71222374       6.03937541
Si       4.38646955       5.75300800       6.03937541
Si       9.43779332       0.92229006       6.03937541
Si      11.39892526       3.39894680       6.92334261
Si       7.97024226       8.17228545       6.92334261
Si       5.55075123       2.81628955       6.92334261
Si       9.90621281       9.31400728       4.52935261
Si       3.59400585       3.92202832       4.52935261
Si      11.41970009       1.15148621       4.52935261
Si       5.55881061       1.74946950       2.05208593
Si       4.01214883       3.93933646       2.05208593
Si       2.88899931       1.50495458       2.05208593
24
Lattice="8.290128715606519 1.3683988804365374e-13 -2.6849996812787758e-14 4.145064357803139 7.179462068358164 1.8674620464460692e-14 4.145064357803239 2.393154022786091 7.250843036310406" Properties=species:S:1:pos:R:3 unique_starting_index=24 config_type=initial n_minim_iter=20 stress="-0.0005893696731877936 -1.3583211707115472e-16 2.38992493861937e-16 -1.3583211707115472e-16 -0.0005893696731882546 1.2569615985031478e-15 2.38992493861937e-16 1.2569615985031478e-15 -0.0005017415266773857" pbc="T T T"
Si       8.90828591       3.33356030       6.59766997
Si       9.23916575       6.04802175       6.59766997
Si       6.72293325       4.97734137       6.59766997
Si       9.44869997       3.98428963       4.32893551
Si       8.40541059       6.19066940       4.32893551
Si       7.01627435       4.18396440       4.32893551
Si      10.26290240       4.82058407       0.99978374
Si       7.27405714       6.47764217       0.99978374
Si       7.33342536       3.06069719       0.99978374
Si       9.36043931       6.60757390       2.23141232
Si       6.17771010       4.80259129       2.23141232
Si       9.33223550       2.94875824       2.23141232
Si      11.07296499       7.70888292       6.05914139
Si       4.36768567       5.73502752       6.05914139
Si       9.42973425       0.91501298       6.05914139
Si      11.37418116       3.39624134       6.93402126
Si       7.95193475       8.15220916       6.93402126
Si       5.54426901       2.81047292       6.93402126
Si       9.88702568       9.30227936       4.53640149
Si       3.58073353       3.91127573       4.53640149
Si      11.40262569       1.14536833       4.53640149
Si       5.54176594       1.75564236       2.06039403
Si       3.99881404       3.92148891       2.06039403
Si       2.89461186       1.50233009       2.06039403
24
Lattice="8.281347634765629 1.3988641368176213e-13 -2.914974511290316e-14 4.140673817382689 7.171857429277267 2.1125084443483164e-14 4.140673817382789 2.390619143092463 7.266715382239717" Properties=species:S:1:pos:R:3 unique_starting_index=24 config_type=initial n_minim_iter=21 stress="-0.0008033039868638803 -8.6947303208531e-17 -1.795538983418776e-16 -8.6947303208531e-17 -0.0008033039868642754 1.342538388891489e-15 -1.795538983418776e-16 1.342538388891489e-15 0.00036985440545771913" pbc="T T T"
Si       8.89266867       3.32097494       6.61280555
Si       9.24031145       6.04078951       6.61280555
Si       6.71106155       4.98194970       6.61280555
Si       9.41967626       3.95593549       4.33469993
Si       8.42691569       6.17971119       4.33469993
Si       6.99744972       4.20806747       4.33469993
Si      10.25523070       4.79333602       1.00419188
Si       7.28392834       6.48462230       1.00419188
Si       7.30488263       3.06575583       1.00419188
Si       9.37891506       6.59744825       2.22093487
Si       6.15967913       4.82365458       2.22093487
Si       9.30544748       2.92261132       2.22093487
Si      11.05995314       7.72445568       6.07967315
Si       4.34314303       5.71597254       6.07967315
Si       9.44094550       0.90328593       6.07967315
Si      11.35412645       3.39338354       6.94992328
Si       7.94687487       8.13627017       6.94992328
Si       5.54304035       2.81406043       6.94992328
Si       9.87693330       9.30800403       4.54862044
Si       3.56325985       3.89967314       4.54862044
Si      11.40384852       1.13603698       4.54862044
Si       5.52905930       1.76565775       2.07078561
Si       3.98771269       3.90547694       2.07078561
Si       2.90524822       1.50072203       2.07078561
