8
Lattice="6.172496382802851 0.580327982833711 0.8963753823485123 -2.0602975370529024 5.8473640269929215 -0.8963754704896263 -2.060297475249774 -3.211160178646394 4.968259817079589" Properties=species:S:1:pos:R:3 unique_starting_index=63 config_type=initial n_minim_iter=12 energy=-1304.179579363675 free_energy=-1304.179579363675 pbc="T T T"
Si       1.98103577       0.07745359       5.08374706
Si      -0.46098619      -1.04992479       3.34239498
Si       0.76002513       5.38787378       0.41007785
Si       0.76002439       2.69817922       2.15142890
Si       0.07086561       3.13907824      -0.11548733
Si       2.51288757       4.26645662       1.62586476
Si       1.29187625      -2.17134196       4.55818189
Si       1.29187699       0.51835261       2.81683083
