16
Lattice="6.556594909011636 0.8106299697964725 1.5062153123932593 3.1550962032734162 4.346104261010963 1.4205967006005737 6.46742658306025 2.844839548281966 14.529619775831229" Properties=species:S:1:pos:R:3 unique_starting_index=3 config_type=initial n_minim_iter=1 energy=-2604.5828881661114 free_energy=-2604.5828881661114 pbc="T T T"
Si       9.06269271       4.71278533       9.61600578
Si      10.04932750       3.88613016      15.41458106
Si       2.69403069       3.06200245       4.31588844
Si       6.60672283       3.01615295       2.97041854
Si       9.11131980       2.11560328       7.39256706
Si      11.24512301       4.37950960       8.91699586
Si       4.96868892       3.04124500       4.68892454
Si       8.85038458       3.55210849       3.60773434
Si       5.60682391       2.48126045       9.35957018
Si       7.97736848       2.69118178       9.35149519
Si      11.76970060       5.27875320      12.31578216
Si       4.86902584       1.34150750       6.25895158
Si       8.08296766       6.00356468      12.90581338
Si       6.99480889       3.98007540      12.31527289
Si       9.70377687       4.31712573      13.13391554
Si       5.92517213       1.43710160       1.28823227
16
Lattice="6.601508342981602 0.7725754343346443 1.6196764454171562 3.171575623520101 4.337916890259016 1.4445559462734134 6.716397583997476 2.69373026811054 14.742639868534896" Properties=species:S:1:pos:R:3 unique_starting_index=3 config_type=initial n_minim_iter=2 stress="0.0061877079736575675 -0.0011056761848241862 0.004909864612418844 -0.0011056761848241862 0.007117044964677811 -0.0039279280810061755 0.004909864612418844 -0.0039279280810061755 0.00947952710092577" pbc="T T T"
Si       9.22459153       4.61136081       9.80381169
Si      10.31640318       3.72309226      15.68911434
Si       2.75777415       3.02627306       4.38486110
Si       6.66010125       2.98348744       3.07975219
Si       9.25373283       2.00971908       7.59045191
Si      11.41802609       4.26478937       9.13768553
Si       5.05692516       2.99212475       4.78604003
Si       8.93137523       3.48898367       3.74232063
Si       5.77824804       2.38100508       9.51094119
Si       8.14880260       2.58149808       9.54871823
Si      11.98626823       5.13767799      12.56780474
Si       4.98922864       1.25889293       6.37685993
Si       8.29248464       5.87464177      13.10047405
Si       7.20572462       3.85070002      12.50694716
Si       9.93864170       4.17175544      13.37595653
Si       5.96273663       1.40362742       1.38542904
16
Lattice="6.555904693924778 0.7533495643731491 1.6394795303089216 3.147034457439929 4.291879802282399 1.4438363874762625 6.73637216694063 2.643121090651246 14.641829974268553" Properties=species:S:1:pos:R:3 unique_starting_index=3 config_type=initial n_minim_iter=3 stress="-0.005174548981359049 -0.0026544197879332706 0.008186238661574561 -0.0026544197879332706 -0.007422882416161099 -0.0031582253810105306 0.008186238661574561 -0.0031582253810105306 -0.0015382651619217222" pbc="T T T"
Si       9.18449637       4.55279661       9.75203708
Si      10.30584455       3.66431392      15.60223452
Si       2.75047427       2.99260527       4.37282694
Si       6.61163006       2.95539144       3.08597420
Si       9.21512085       1.96010806       7.56896557
Si      11.37439613       4.19430984       9.10642228
Si       5.04289769       2.95435879       4.76933789
Si       8.87906026       3.43151674       3.74189779
Si       5.78856599       2.34111961       9.44912880
Si       8.13108531       2.53456863       9.51099585
Si      11.94297105       5.06049778      12.50709154
Si       4.98797746       1.22157970       6.33534583
Si       8.28002357       5.79423977      13.01913104
Si       7.20859903       3.78974187      12.42787235
Si       9.92646151       4.10417857      13.30814532
Si       5.92061087       1.37594322       1.40630925
16
Lattice="6.5519932504515435 0.7909399655988256 1.56312071916275 3.153370921081311 4.33712111709986 1.4201586016308663 6.608939784410275 2.757341463589875 14.452686529422389" Properties=species:S:1:pos:R:3 unique_starting_index=3 config_type=initial n_minim_iter=4 stress="-0.0010593406683078626 0.0006021271324895062 0.0024804763778801782 0.0006021271324895062 -0.00659838137846394 0.0019047268603099422 0.0024804763778801782 0.0019047268603099422 -0.004580603853718331" pbc="T T T"
Si       9.09194120       4.68312370       9.57550022
Si      10.16750927       3.82055967      15.38255650
Si       2.71271530       3.04976627       4.35598441
Si       6.58829136       3.04426436       3.00844852
Si       9.15920290       2.02467858       7.41601822
Si      11.33010198       4.29744050       8.91886598
Si       5.02452828       3.02159416       4.69864392
Si       8.87794355       3.48864754       3.61525039
Si       5.73329298       2.42737612       9.30661964
Si       8.05918920       2.62651883       9.37570719
Si      11.84279459       5.20414113      12.28634566
Si       4.95293994       1.25112923       6.21129904
Si       8.16945117       5.92525571      12.84444577
Si       7.10889759       3.89816590      12.25699020
Si       9.82812128       4.23316407      13.11940534
Si       5.92077008       1.40403763       1.34956775
16
Lattice="6.4671808146393275 0.7687203826495606 1.5064806842513072 3.094113992647442 4.362314248341452 1.3693549108391887 6.419095315462865 2.6815102344850525 14.367384531096759" Properties=species:S:1:pos:R:3 unique_starting_index=3 config_type=initial n_minim_iter=5 stress="-0.008019407615178812 7.724166359243339e-05 -0.0018087198684797405 7.724166359243339e-05 -0.0024071417829514287 -0.0007839739524599748 -0.0018087198684797405 -0.0007839739524599748 -0.0012489313731906576" pbc="T T T"
Si       8.88777042       4.66057003       9.45033905
Si       9.92230898       3.75244526      15.27144692
Si       2.63158929       3.05261696       4.34061615
Si       6.47428561       3.06433162       2.93669847
Si       8.99898788       1.95544966       7.32527239
Si      11.13575146       4.24374606       8.78563102
Si       4.93167581       3.01540585       4.64863505
Si       8.75069738       3.46353756       3.51112256
Si       5.61153218       2.38407536       9.22905880
Si       7.89770628       2.57409736       9.30461178
Si      11.59581349       5.15165313      12.14127329
Si       4.86185966       1.18462127       6.13318805
Si       7.95206310       5.88365061      12.72949994
Si       6.92647520       3.84182991      12.16023157
Si       9.61271154       4.17101078      13.01221605
Si       5.84202844       1.38291690       1.30260155
16
Lattice="6.530899886522973 0.7336667255534198 1.4857317400342025 3.100620640434738 4.378802148534728 1.3449161948875192 6.466117186050676 2.644107139793957 14.190065148877073" Properties=species:S:1:pos:R:3 unique_starting_index=3 config_type=initial n_minim_iter=6 stress="0.005759677619080262 -0.0015728549487343125 -0.0023439453967686644 -0.0015728549487343125 -0.0005253697768736038 -7.755295907036922e-05 -0.0023439453967686644 -7.755295907036922e-05 -0.003738686545507385" pbc="T T T"
Si       8.92216830       4.65533083       9.29826842
Si       9.98941668       3.72279272      15.09632224
Si       2.62044967       3.06448871       4.33037614
Si       6.50408898       3.09996350       2.89180508
Si       9.08236897       1.87659810       7.23405458
Si      11.23994449       4.18157967       8.65216845
Si       4.97681285       3.01534649       4.61566296
Si       8.83395167       3.42258339       3.45035210
Si       5.68173477       2.36419855       9.10152781
Si       7.97993969       2.53669190       9.21912356
Si      11.66806672       5.11214827      11.96972660
Si       4.92997159       1.10343513       6.00370498
Si       7.97530464       5.86451291      12.56094171
Si       6.97236324       3.80828184      12.00033359
Si       9.68933312       4.13361079      12.86308025
Si       5.89739582       1.34174361       1.29858688
16
Lattice="6.473739831035599 0.8010727100802052 1.5433693204413177 3.106947320044406 4.459297857505247 1.403177459997578 6.507880364972649 2.817461616183893 14.35284552566492" Properties=species:S:1:pos:R:3 unique_starting_index=3 config_type=initial n_minim_iter=7 stress="0.0002442478895317067 0.0025397767019951873 -8.995103689245709e-05 0.0025397767019951873 0.005963440762296775 0.0029540066346744457 -8.995103689245709e-05 0.0029540066346744457 0.004241377269403636" pbc="T T T"
Si       8.90846386       4.84716492       9.43068175
Si      10.00683230       3.94897371      15.30992678
Si       2.62775960       3.14719593       4.42798899
Si       6.46221621       3.24714123       2.96787049
Si       9.05047043       1.99572583       7.35990509
Si      11.20498817       4.35699869       8.79926354
Si       4.97644435       3.12622178       4.73840542
Si       8.78424611       3.55659347       3.56523169
Si       5.71169819       2.50276632       9.21256321
Si       7.99372968       2.69269013       9.37993064
Si      11.64580184       5.33637183      12.15689751
Si       4.93856021       1.14469581       6.02554262
Si       7.99838242       6.07031399      12.73548801
Si       6.99937024       3.97746497      12.14877091
Si       9.69434775       4.34744745      13.05278132
Si       5.85140910       1.39814085       1.36903152
16
Lattice="6.465963728303963 0.7908770605111582 1.5361685648821362 3.100980212893381 4.452863136221831 1.3801163509672278 6.487577977685957 2.739285296004716 14.361188287871546" Properties=species:S:1:pos:R:3 unique_starting_index=3 config_type=initial n_minim_iter=8 stress="0.0013424328312677419 0.0019634285242296156 -0.0009394557923423374 0.0019634285242296156 0.0033953676060727916 -0.0007078476886701208 -0.0009394557923423374 -0.0007078476886701208 0.008816847684384222" pbc="T T T"
Si       8.89279861       4.79765366       9.39808827
Si       9.99095865       3.86392279      15.32213160
Si       2.60862810       3.11432966       4.42770928
Si       6.44661449       3.26370316       2.94068421
Si       9.04344538       1.94329756       7.36051741
Si      11.17888694       4.30148047       8.77008983
Si       4.96077703       3.10773782       4.77165623
Si       8.76238358       3.55857838       3.57773713
Si       5.70051419       2.46001117       9.20785733
Si       8.00544301       2.65065766       9.39532083
Si      11.61933975       5.26280181      12.14022254
Si       4.93629577       1.06619370       5.96252072
Si       7.96543958       5.99663641      12.71226849
Si       6.97600486       3.90804447      12.13565692
Si       9.66263640       4.28651004      13.04905048
Si       5.84644420       1.38429343       1.37334393
16
Lattice="6.444815566062673 0.7788205150239723 1.5389916306823859 3.0774912130991474 4.511135823116335 1.374577446916007 6.509890487482785 2.773803071106403 14.15913863399722" Properties=species:S:1:pos:R:3 unique_starting_index=3 config_type=initial n_minim_iter=9 stress="-0.0015051096170715652 0.00047449076666530366 0.0016915664357528275 0.00047449076666530366 0.009710073740896498 -0.0014640284896576558 0.0016915664357528275 -0.0014640284896576558 -0.0009578471408262745" pbc="T T T"
Si       8.89656653       4.84437915       9.27234283
Si      10.01458559       3.89847692      15.12694863
Si       2.59977580       3.13214789       4.35697311
Si       6.41931945       3.31052555       2.91553491
Si       9.04159423       1.94425430       7.28792594
Si      11.14099787       4.33705092       8.66855589
Si       4.93791887       3.14762667       4.76477235
Si       8.71264264       3.61883182       3.61079698
Si       5.70038359       2.49313768       9.08257064
Si       8.03413055       2.68287922       9.28913149
Si      11.60783699       5.29944025      12.00181563
Si       4.93727026       1.02920994       5.82563038
Si       7.95498479       6.06737813      12.53209919
Si       6.97655669       3.95261536      11.96269593
Si       9.64730811       4.34367019      12.87988384
Si       5.83010972       1.38846329       1.38860383
16
Lattice="6.460591760962478 0.7631007819408727 1.5402521939124032 3.076795193274094 4.455635054057328 1.3963543284674853 6.495620576560774 2.7848231518150013 14.265534834221437" Properties=species:S:1:pos:R:3 unique_starting_index=3 config_type=initial n_minim_iter=10 stress="-0.00045383623370627563 -0.0020127946028739296 -0.00013040442942053869 -0.0020127946028739296 -0.0007240161881369198 0.0014603826530621429 -0.00013040442942053869 0.0014603826530621429 0.0024714769646395586" pbc="T T T"
Si       8.90873683       4.80384448       9.34180849
Si      10.01172850       3.89351861      15.23959890
Si       2.59772746       3.08840133       4.38362768
Si       6.42859835       3.26468243       2.93946350
Si       9.05275650       1.93493174       7.33479957
Si      11.14432979       4.30822849       8.72915152
Si       4.93288289       3.11766857       4.81479263
Si       8.71912900       3.58521658       3.65248175
Si       5.69010423       2.48851672       9.14896080
Si       8.04244678       2.67539670       9.35336394
Si      11.61510178       5.25483315      12.09443124
Si       4.93418790       1.02349710       5.85111747
Si       7.94228454       6.02584028      12.63058865
Si       6.96502836       3.94011042      12.05369513
Si       9.63510723       4.32905020      12.97186921
Si       5.84692460       1.37340629       1.39558188
16
Lattice="6.483390213773526 0.8027327180570174 1.527027629638915 3.1183465556462386 4.447329511091325 1.3695894545089018 6.52494818379823 2.751560619792023 14.200949309316194" Properties=species:S:1:pos:R:3 unique_starting_index=3 config_type=initial n_minim_iter=11 stress="0.00021413115124295273 0.0023058168635021418 -7.599037531262353e-05 0.0023058168635021418 -0.006944424765118791 -0.00240244402576397 -7.599037531262353e-05 -0.00240244402576397 -0.002690933449920702" pbc="T T T"
Si       8.96654916       4.81440016       9.26873654
Si      10.05553869       3.89407710      15.17184564
Si       2.62670183       3.04857755       4.35594500
Si       6.46128974       3.29047058       2.91878140
Si       9.08725734       1.95171476       7.29945118
Si      11.20233112       4.34028171       8.66783148
Si       4.96765898       3.11793086       4.79824783
Si       8.76587083       3.61922753       3.62620094
Si       5.72582059       2.47563299       9.09478380
Si       8.08786585       2.68004168       9.31237224
Si      11.67994375       5.25273315      12.02069681
Si       4.95581463       1.00022481       5.79628633
Si       7.99182802       5.98939067      12.54810540
Si       7.00442139       3.91285515      11.98845133
Si       9.67814283       4.32437544      12.90478388
Si       5.87931264       1.41315672       1.38913474
16
Lattice="6.481535196814184 0.7747460602538532 1.518324408693277 3.09012757727075 4.457519361126388 1.394095084726043 6.482142772700564 2.829338669848596 14.200643439374511" Properties=species:S:1:pos:R:3 unique_starting_index=3 config_type=initial n_minim_iter=12 stress="0.0020383112563150322 -0.001738529935923179 -0.0011038002973286956 -0.001738529935923179 -0.00543557878813215 -0.00021616477700719502 -0.0011038002973286956 -0.00021616477700719502 -0.00339173291780766" pbc="T T T"
Si       8.93128588       4.88845404       9.24362046
Si       9.99203080       4.02075813      15.18860397
Si       2.61898695       3.00395900       4.36985292
Si       6.41717662       3.28772148       2.96852230
Si       9.06216354       1.93407942       7.30367773
Si      11.17212996       4.39378490       8.66653753
Si       4.94751909       3.13628586       4.83189303
Si       8.73756856       3.60220607       3.63332091
Si       5.71841710       2.51309303       9.06940473
Si       8.06857993       2.71029626       9.32338758
Si      11.63390893       5.27337033      12.02734524
Si       4.94540141       0.95381237       5.74509848
Si       7.90536722       6.05211498      12.54455942
Si       6.95690721       3.97225822      11.99792205
Si       9.61544262       4.39338037      12.91832107
Si       5.89368388       1.42456564       1.40506222
16
Lattice="6.473386189451736 0.8134612863111533 1.5373802592153785 3.106391903000133 4.495429533517724 1.415506676867658 6.506866390178229 2.9085544182114442 14.272341261644968" Properties=species:S:1:pos:R:3 unique_starting_index=3 config_type=initial n_minim_iter=13 stress="5.1338788030407254e-05 0.0006184752247411503 -0.00020623146341408138 0.0006184752247411503 0.00047560526994972185 0.0003993272568124535 -0.00020623146341408138 0.0003993272568124535 -0.0007230369994845527" pbc="T T T"
Si       8.95827797       4.98211425       9.29782104
Si      10.01501264       4.13778818      15.27654427
Si       2.64509763       3.01435843       4.38645743
Si       6.42091051       3.33559080       3.01555461
Si       9.06694894       2.00975419       7.36050923
Si      11.18009053       4.49937579       8.73254421
Si       4.96007825       3.17779970       4.86872627
Si       8.73539554       3.67234515       3.67060044
Si       5.73444629       2.57105726       9.11160884
Si       8.08284568       2.78857352       9.37584752
Si      11.65743974       5.37446062      12.10804951
Si       4.94432335       0.98797383       5.77267054
Si       7.93181475       6.14875558      12.61056944
Si       6.98113681       4.05220006      12.06888844
Si       9.63342286       4.49502742      12.99596136
Si       5.89330288       1.47841693       1.42905031
16
Lattice="6.454806873068622 0.8222179874745044 1.5654623362904168 3.0975470548554274 4.531078215955001 1.447657131884442 6.52147733475785 2.981317551718216 14.377233918533646" Properties=species:S:1:pos:R:3 unique_starting_index=3 config_type=initial n_minim_iter=14 stress="-0.001343817169250811 0.00043059400574762917 0.0016521547283272846 0.00043059400574762917 0.005747476570183994 0.0009265455308323156 0.0016521547283272846 0.0009265455308323156 0.003741391017339796" pbc="T T T"
Si       8.94710733       5.06513279       9.35557168
Si      10.01937645       4.24890812      15.41711278
Si       2.65415613       3.01030736       4.42833738
Si       6.39495577       3.39897030       3.09263969
Si       9.06737005       2.04466817       7.45584793
Si      11.16376192       4.56206661       8.81726821
Si       4.95904042       3.19874902       4.94703295
Si       8.70144707       3.71696421       3.72024131
Si       5.75192220       2.62038599       9.16135009
Si       8.09777424       2.85766493       9.46895312
Si      11.64267110       5.43795818      12.21911914
Si       4.94729288       0.96415072       5.77350889
Si       7.90629625       6.23997338      12.69378215
Si       6.98617804       4.11815359      12.17344024
Si       9.62954440       4.58283464      13.12067339
Si       5.87784046       1.51324222       1.47840293
16
Lattice="6.476716350118928 0.8235485409303445 1.5409210525960038 3.1135336474381603 4.506399203125516 1.4179362158300308 6.501098056761779 2.908365708604973 14.365059859079112" Properties=species:S:1:pos:R:3 unique_starting_index=3 config_type=initial n_minim_iter=15 stress="-0.0009065134678371778 0.0006392921003462034 -4.46516969449722e-06 0.0006392921003462034 0.0033106931410475915 -0.0012906473235497445 -4.46516969449722e-06 -0.0012906473235497445 0.0026727768793612453" pbc="T T T"
Si       8.95864587       5.00518983       9.30222257
Si      10.01757173       4.17435107      15.39213407
Si       2.66908111       2.95986688       4.38607624
Si       6.42179441       3.38834303       3.09180172
Si       9.09488394       2.03099203       7.45749223
Si      11.18552691       4.51233539       8.77583898
Si       4.96939331       3.12740386       4.91604856
Si       8.71763462       3.70473464       3.65585988
Si       5.74465974       2.56612903       9.12786939
Si       8.10183634       2.82792538       9.43229016
Si      11.65472960       5.36272475      12.17241623
Si       4.94279077       0.94286306       5.77230617
Si       7.88612075       6.17344688      12.63218761
Si       6.97891330       4.04828774      12.16959166
Si       9.63570852       4.51405842      13.09817078
Si       5.88754923       1.53562459       1.46268259
16
Lattice="6.484868263860989 0.8197174366999068 1.536890956473611 3.114152715060263 4.4992893354845895 1.4212883584833724 6.5033316883319365 2.923730413237959 14.335958544956345" Properties=species:S:1:pos:R:3 unique_starting_index=3 config_type=initial n_minim_iter=16 stress="1.0698651084826806e-05 1.9238432445973855e-06 -0.00027919529156366876 1.9238432445973855e-06 0.00020657910475263167 -0.00026109928404408577 -0.00027919529156366876 -0.00026109928404408577 -7.405856510669939e-06" pbc="T T T"
Si       8.96380190       5.00654498       9.27800232
Si      10.02653889       4.18744798      15.36590067
Si       2.66739350       2.95861513       4.37866795
Si       6.42546666       3.39925428       3.09247867
Si       9.10818049       2.02787314       7.45015778
Si      11.19703717       4.50876564       8.75554627
Si       4.97291133       3.11817166       4.91894717
Si       8.72426442       3.70649427       3.65321918
Si       5.75089956       2.57358823       9.10394181
Si       8.11318774       2.83724074       9.41984934
Si      11.66087029       5.36474427      12.14805024
Si       4.95247800       0.93123971       5.74443488
Si       7.87943637       6.18200793      12.60007592
Si       6.97983726       4.05509316      12.15078085
Si       9.64247145       4.52550925      13.07826553
Si       5.89039751       1.53592842       1.46805998
16
Lattice="6.488354165798459 0.8208140772612085 1.5400171223289552 3.116181188789336 4.49641499431532 1.42742004336135 6.511972545037491 2.938572761067189 14.337552164044142" Properties=species:S:1:pos:R:3 unique_starting_index=3 config_type=initial n_minim_iter=17 stress="0.00025661041958993685 -0.000338838058656929 -6.878370276915078e-05 -0.000338838058656929 -0.0018835816207132996 0.00021216733434536184 -6.878370276915078e-05 0.00021216733434536184 -0.0009953299659793047" pbc="T T T"
Si       8.97239928       5.01322275       9.27829472
Si      10.03806464       4.20467031      15.37307184
Si       2.66997780       2.96076337       4.37923736
Si       6.42699916       3.41232005       3.10256204
Si       9.11771413       2.02717935       7.46183922
Si      11.20934425       4.51517461       8.75875761
Si       4.97830326       3.10986303       4.92703274
Si       8.73131321       3.71393463       3.65807520
Si       5.75994209       2.58049885       9.10039782
Si       8.12023283       2.84605546       9.42967980
Si      11.66914958       5.37500762      12.15286360
Si       4.96268535       0.92412952       5.73834055
Si       7.87944255       6.19458097      12.59273038
Si       6.98502563       4.06361419      12.16117195
Si       9.65396032       4.54032312      13.08824278
Si       5.88880523       1.54386111       1.47966146
16
Lattice="6.491414879546878 0.8337994746110918 1.543702677578521 3.1233609023103357 4.507975446865024 1.437300903132277 6.5210727634291725 2.9794580336833567 14.34915525744154" Properties=species:S:1:pos:R:3 unique_starting_index=3 config_type=initial n_minim_iter=18 stress="0.00045830038189625477 -0.000551535350265654 4.199741077823489e-06 -0.000551535350265654 -0.002395594742176166 0.0007566495960673353 4.199741077823489e-06 0.0007566495960673353 -0.0018973771311386635" pbc="T T T"
Si       8.99441496       5.04459199       9.28517162
Si      10.05129830       4.25927328      15.39241519
Si       2.67844179       2.97340414       4.37387872
Si       6.42954375       3.45149628       3.12031074
Si       9.12918982       2.04110369       7.48657814
Si      11.22846810       4.55751718       8.76467459
Si       4.98571183       3.09991480       4.93820630
Si       8.74602612       3.75704820       3.66645095
Si       5.76849393       2.60236859       9.09688927
Si       8.12143561       2.87455263       9.45167765
Si      11.68201031       5.42404498      12.16751068
Si       4.97752264       0.91869313       5.73726629
Si       7.87462664       6.24437827      12.57280170
Si       6.98565821       4.09726963      12.19384797
Si       9.66972421       4.59345232      13.11204920
Si       5.88048845       1.58103942       1.50299283
16
Lattice="6.487138089756971 0.8529199246948442 1.5511201233214127 3.1335672608738148 4.524479772894863 1.4371980794494341 6.528447850365968 2.981396612472965 14.40530959787945" Properties=species:S:1:pos:R:3 unique_starting_index=3 config_type=initial n_minim_iter=19 stress="-0.00037069961800673346 0.0004277084514552281 0.0003742432237967944 0.0004277084514552281 0.0016498893241200646 -0.00042635276575972734 0.0003742432237967944 -0.00042635276575972734 0.001855232549179345" pbc="T T T"
Si       9.01747334       5.05283920       9.33238540
Si      10.05360082       4.27812293      15.44837891
Si       2.69231574       2.97918839       4.38476115
Si       6.43595836       3.46448116       3.12702787
Si       9.12774657       2.06415797       7.51265722
Si      11.23736491       4.58813712       8.79324604
Si       4.98963590       3.10070594       4.94053911
Si       8.75875087       3.79497471       3.67362108
Si       5.76544718       2.60301773       9.13083299
Si       8.10947201       2.87960270       9.48771418
Si      11.69630690       5.45600331      12.21972231
Si       4.97757588       0.93107228       5.78587215
Si       7.88600721       6.26092440      12.59723518
Si       6.98572230       4.10885942      12.25280590
Si       9.68084506       4.61557879      13.15878602
Si       5.87311429       1.61595222       1.51346460
16
Lattice="6.48854004827434 0.8593742793854882 1.5328271662443584 3.135247058360809 4.5353802560437675 1.4283266306488256 6.501566644946445 2.9971354018641185 14.355602094051896" Properties=species:S:1:pos:R:3 unique_starting_index=3 config_type=initial n_minim_iter=20 stress="-0.00014809637248152312 0.00039322681676750226 -0.0005321337998829692 0.00039322681676750226 0.0024545070032053035 -0.0002935410877735834 -0.0005321337998829692 -0.0002935410877735834 -0.0008123757860046378" pbc="T T T"
Si       9.02202290       5.05383245       9.29392415
Si      10.02233415       4.31693515      15.39255679
Si       2.69027948       2.96731529       4.37473365
Si       6.43672435       3.48925500       3.10696845
Si       9.12395852       2.07974690       7.47225653
Si      11.23494359       4.60272508       8.73031964
Si       4.98252915       3.09824421       4.92645545
Si       8.76216060       3.83339042       3.65328562
Si       5.74493085       2.61094281       9.08414371
Si       8.09572998       2.89176079       9.45322982
Si      11.68697312       5.47684579      12.17511391
Si       4.97331988       0.91043156       5.75606630
Si       7.84658611       6.27875074      12.51386780
Si       6.94895383       4.12764562      12.21946524
Si       9.66013515       4.65199244      13.10352853
Si       5.86895597       1.64571822       1.51237115
16
Lattice="6.493769702990461 0.8587487415514743 1.5386045509180029 3.1388689039811566 4.524151342100204 1.4332026030638123 6.514176744867357 2.9946577180434777 14.379048425592604" Properties=species:S:1:pos:R:3 unique_starting_index=3 config_type=initial n_minim_iter=21 stress="-4.951512068348084e-05 -3.520475011961507e-05 -0.00019246536664567048 -3.520475011961507e-05 1.1704767679472371e-05 1.8504448898480407e-05 -0.00019246536664567048 1.8504448898480407e-05 -0.0002819816626606828" pbc="T T T"
Si       9.03529378       5.03745129       9.31687322
Si      10.03513453       4.31670716      15.41917719
Si       2.69549683       2.96112087       4.38704829
Si       6.44556121       3.48629277       3.11660061
Si       9.13502536       2.07806617       7.48691624
Si      11.25339906       4.59093085       8.74514055
Si       4.99148880       3.08689435       4.93222103
Si       8.77234613       3.82957885       3.66008023
Si       5.75312168       2.60623848       9.09658862
Si       8.10418818       2.88611411       9.47040292
Si      11.70332783       5.46893357      12.20201543
Si       4.98138309       0.90892427       5.77483265
Si       7.85376454       6.26731032      12.52759315
Si       6.95632702       4.12204328      12.24526988
Si       9.67768277       4.64872994      13.12679804
Si       5.87009390       1.64725434       1.52009511
