8
Lattice="4.467750994665987 0.2310699519629296 0.18253530453315928 1.5662063904721137 4.19060733253344 0.18253530453408107 1.5662063904728092 1.1477143071375264 4.034508746064883" Properties=species:S:1:pos:R:3 unique_starting_index=42 config_type=initial n_minim_iter=1 energy=-1324.0550786738763 free_energy=-1324.0550786738763 pbc="T T T"
Si       4.25301945       4.58433310       1.66112946
Si       5.65256586       2.23515085       2.21725852
Si       3.83410865       3.24894856       4.07523982
Si       4.97657148       5.45220952       2.85917986
Si       6.69809128       3.49985462       2.35676739
Si       5.35501962       3.52726825       4.64218756
Si       6.11666710       4.48228687       3.54081347
Si       1.13020451       0.82821261       0.65425227
8
Lattice="4.460416956818236 0.22861459542450277 0.18059567867668702 1.5616557766997388 4.184353629536197 0.18059567867760892 1.5616557767004344 1.144379622408499 4.028873958810797" Properties=species:S:1:pos:R:3 unique_starting_index=42 config_type=initial n_minim_iter=2 stress="-0.013259955878152783 -0.2636640411189892 -0.20828323038734795 -0.2636640411189892 0.15333142073222533 -0.1526297203909763 -0.20828323038734795 -0.1526297203909763 0.22597323602620065" pbc="T T T"
Si       4.24336280       4.57601248       1.65657196
Si       5.64172277       2.22916572       2.21179409
Si       3.82513516       3.24165636       4.06820031
Si       4.96480810       5.44154337       2.85219872
Si       6.68437699       3.49121021       2.35059711
Si       5.34264545       3.51884101       4.63342733
Si       6.10359121       4.47270488       3.53324411
Si       1.12839578       0.82688718       0.65320524
8
Lattice="4.457367395980294 0.23498676942129504 0.18562942153752623 1.5668132975913847 4.179526166330543 0.1856294215384465 1.5668132975920785 1.1481590480019028 4.023012311399455" Properties=species:S:1:pos:R:3 unique_starting_index=42 config_type=initial n_minim_iter=3 stress="-0.44752329208127206 -0.3346244214474632 -0.2643388729454926 -0.3346244214474632 -0.23609687693617837 -0.193707233131972 -0.2643388729454926 -0.193707233131972 -0.14390483849036154" pbc="T T T"
Si       4.24777339       4.57478766       1.66158569
Si       5.64188350       2.23510230       2.21508379
Si       3.83084439       3.24447818       4.06584807
Si       4.97250104       5.44082457       2.85687626
Si       6.68600900       3.49750902       2.35686121
Si       5.34914330       3.52485594       4.63164518
Si       6.11026662       4.47759661       3.53710837
Si       1.13195916       0.82949842       0.65526801
8
Lattice="4.504085035517681 0.43784568120813233 0.34587922003307164 1.7743222820371298 4.162964242843418 0.3458792200339525 1.7743222820377942 1.300221401825035 3.969802013737962" Properties=species:S:1:pos:R:3 unique_starting_index=42 config_type=initial n_minim_iter=4 stress="-0.5491694562789136 0.9195391310580853 0.7263962877589621 0.9195391310580853 -1.1301636981918788 0.5323023946176854 0.7263962877589621 0.5323023946176854 -1.3835050011252001" pbc="T T T"
Si       4.56472125       4.66549445       1.91615502
Si       5.82385449       2.54639629       2.42358276
Si       4.18249529       3.46577397       4.09515721
Si       5.35099146       5.54461301       3.06553875
Si       6.89899313       3.77681644       2.62924366
Si       5.67963590       3.81737658       4.68430816
Si       6.52836045       4.78397531       3.77913434
Si       1.25094384       0.91669026       0.72414580
8
Lattice="4.541172969695976 0.5063040671585739 0.3999583948509631 1.850773049098107 4.177706891328073 0.39995839485183665 1.8507730490987653 1.3562444391982211 3.971624681236135" Properties=species:S:1:pos:R:3 unique_starting_index=42 config_type=initial n_minim_iter=5 stress="0.18853700007018584 1.7874084662995977 1.4119756634335145 1.7874084662995977 -0.9408048536834993 1.0346942012957587 1.4119756634335145 1.0346942012957587 -1.4332519659734955" pbc="T T T"
Si       4.68901952       4.71346221       2.01159632
Si       5.90703780       2.66333840       2.50273507
Si       4.31906344       3.55298335       4.11972695
Si       5.49748757       5.59654522       3.14489409
Si       6.99264363       3.88273326       2.73154980
Si       5.80884405       3.93019031       4.71645860
Si       6.70406912       4.91273442       3.88084849
Si       1.31216373       0.96155213       0.75958474
8
Lattice="4.543670713596441 0.5200553556128189 0.4108213201443882 1.8646379859559081 4.175946157199002 0.4108213201452647 1.8646379859565687 1.3664046495613404 3.967396980208275" Properties=species:S:1:pos:R:3 unique_starting_index=42 config_type=initial n_minim_iter=6 stress="-2.3204263953047435 0.28633397240009867 0.22619149918160228 0.28633397240009867 -2.5013413597791203 0.16575287991660406 0.22619149918160228 0.16575287991660406 -2.5802289450835842" pbc="T T T"
Si       4.71992254       4.68994078       2.03806546
Si       5.89391825       2.69755065       2.53216753
Si       4.34773431       3.57633423       4.09071682
Si       5.49915693       5.58522323       3.17365786
Si       6.98235045       3.91187373       2.72975747
Si       5.83353016       3.92414226       4.69878529
Si       6.76047664       4.95406979       3.91350165
Si       1.34443903       0.98520343       0.77826826
8
Lattice="4.614451566239153 0.56110486176111 0.4432486610517186 1.9251027609457867 4.231073301522562 0.4432486610526078 1.9251027609464582 1.4107131696618278 4.013519529206519" Properties=species:S:1:pos:R:3 unique_starting_index=42 config_type=initial n_minim_iter=7 stress="0.5088125453792944 0.431552183512498 0.34090762805964486 0.431552183512498 0.23614406914464597 0.24981673202106605 0.34090762805964486 0.24981673202106605 0.11724756027131938" pbc="T T T"
Si       4.80058825       4.76727445       2.16670057
Si       5.99195944       2.83510506       2.55455398
Si       4.50843308       3.61016224       4.13617026
Si       5.61107993       5.69141687       3.26148369
Si       7.11732698       4.01461486       2.78212940
Si       5.97215923       3.99772243       4.78176215
Si       6.93604574       5.08272663       4.01513501
Si       1.40287687       1.02802662       0.81209673
8
Lattice="4.595231440052713 0.5373754671480921 0.42450346188022137 1.8966857524104586 4.219894256606909 0.42450346188111626 1.8966857524111331 1.38988921730123 4.006983739637619" Properties=species:S:1:pos:R:3 unique_starting_index=42 config_type=initial n_minim_iter=8 stress="2.9119191532440296 1.9078298011470822 1.5071033286362814 1.9078298011470822 1.706491247481616 1.1044036489280442 1.5071033286362814 1.1044036489280442 1.1808669741104758" pbc="T T T"
Si       4.74593807       4.72239836       2.14862326
Si       5.93270505       2.80858443       2.52119429
Si       4.46529453       3.56647794       4.09669821
Si       5.56136426       5.65998016       3.23310955
Si       7.07237417       3.97822917       2.75179241
Si       5.92392210       3.96082375       4.75774815
Si       6.86905302       5.03363444       3.97635429
Si       1.38939320       1.01814580       0.80429131
8
Lattice="4.580195948708847 0.5081966825814396 0.40145347947636817 1.8643330727853946 4.21434704200705 0.40145347947727206 1.8643330727860745 1.3661812095279122 4.006923357064412" Properties=species:S:1:pos:R:3 unique_starting_index=42 config_type=initial n_minim_iter=9 stress="2.0440362858730436 1.1255653405177952 0.8891481149263122 1.1255653405177952 1.332868093407399 0.6515667531913649 0.8891481149263122 0.6515667531913649 1.0227647163207045" pbc="T T T"
Si       4.69488473       4.69203784       2.11658632
Si       5.88837547       2.76826511       2.49014899
Si       4.41349423       3.52930209       4.07457910
Si       5.50810421       5.62265520       3.20649878
Si       7.02073892       3.94318717       2.71948487
Si       5.87495321       3.92043920       4.72759762
Si       6.78533867       4.97228866       3.92789377
Si       1.37528882       1.00781012       0.79612657
8
Lattice="4.573269159612096 0.5025415518392878 0.3969861698870877 1.8568540007227214 4.209445573657355 0.39698616988799634 1.8568540007234047 1.360700553809314 4.00318923603748" Properties=species:S:1:pos:R:3 unique_starting_index=42 config_type=initial n_minim_iter=10 stress="0.8297896981039914 0.4010737879169552 0.31683100894673055 0.4010737879169552 0.5763784473067095 0.23217341221938997 0.31683100894673055 0.23217341221938997 0.4658790106083129" pbc="T T T"
Si       4.67419058       4.67612754       2.12332620
Si       5.86697031       2.77136323       2.47405451
Si       4.41000033       3.50870361       4.05754072
Si       5.49031951       5.63535248       3.18399544
Si       7.02748890       3.91648371       2.70447555
Si       5.85152355       3.90918992       4.74515956
Si       6.75587987       4.95070129       3.91084067
Si       1.37533612       1.00784479       0.79615395
8
Lattice="4.574250134442389 0.5086898737423887 0.40184307924038304 1.8630122307778503 4.208528853182033 0.4018430792412964 1.863012230778538 1.3652132979686498 4.001173030430805" Properties=species:S:1:pos:R:3 unique_starting_index=42 config_type=initial n_minim_iter=11 stress="1.3625105166430291 0.7769461937157186 0.6137540120271218 0.7769461937157186 0.8716110545356284 0.4497582598016128 0.6137540120271218 0.4497582598016128 0.6575553886290045" pbc="T T T"
Si       4.66280587       4.67757365       2.16093254
Si       5.86491971       2.80533395       2.45436378
Si       4.44177532       3.48672606       4.05024156
Si       5.51284370       5.64892108       3.18411514
Si       7.04721242       3.92062610       2.72136589
Si       5.86141506       3.92968649       4.75833184
Si       6.75110332       4.94720103       3.90807563
Si       1.37614795       1.00843969       0.79662390
8
Lattice="4.568262689144774 0.4945456145118713 0.3906697239680154 1.847721336028574 4.20708036840862 0.3906697239689382 1.8477213360292704 1.3540081472430192 4.002350558943103" Properties=species:S:1:pos:R:3 unique_starting_index=42 config_type=initial n_minim_iter=12 stress="2.5839177753301854 1.3847857847854204 1.0939210952897247 1.3847857847854204 1.70896581290906 0.8016241662553029 1.0939210952897247 0.8016241662553029 1.3274448714362614" pbc="T T T"
Si       4.60871563       4.67267594       2.16601810
Si       5.84395530       2.79868255       2.40444527
Si       4.42911754       3.43399962       4.04429958
Si       5.50742265       5.64271302       3.14989414
Si       7.03965970       3.88657099       2.72607867
Si       5.82666668       3.93497892       4.76021469
Si       6.72818224       4.93040449       3.89480708
Si       1.35158320       0.99043867       0.78240387
8
Lattice="4.565299886189585 0.49490094273600593 0.39095041795288793 1.8471676406147468 4.20414815407695 0.3909504179538169 1.8471676406154474 1.3536023998574165 3.99943301904465" Properties=species:S:1:pos:R:3 unique_starting_index=42 config_type=initial n_minim_iter=13 stress="0.8920149680196813 0.48294809830428864 0.38150818593620706 0.48294809830428864 0.5868729085056349 0.27956877583644985 0.38150818593620706 0.27956877583644985 0.45381636274024095" pbc="T T T"
Si       4.59424258       4.67427354       2.17618510
Si       5.84111881       2.80526703       2.38819756
Si       4.43454169       3.41710794       4.04350008
Si       5.51913578       5.63629358       3.14089684
Si       7.03706693       3.88085145       2.74090845
Si       5.82043178       3.94923236       4.75605254
Si       6.72085782       4.92503716       3.89056712
Si       1.34754831       0.98748191       0.78006815
8
Lattice="4.566759969078466 0.5028522880641177 0.39723163811410195 1.8551894671026694 4.203145141431524 0.3972316381150359 1.8551894671033742 1.3594807854173094 3.997003133391011" Properties=species:S:1:pos:R:3 unique_starting_index=42 config_type=initial n_minim_iter=14 stress="1.5781309823913128 1.1387480053399084 0.8995618520540147 1.1387480053399084 0.858633560535652 0.6591979282168627 0.8995618520540147 0.6591979282168627 0.5448982406964494" pbc="T T T"
Si       4.59498303       4.68095525       2.19487542
Si       5.84771320       2.82314709       2.38259944
Si       4.45357769       3.41187069       4.04567342
Si       5.54931761       5.64089138       3.13435894
Si       7.05054316       3.88083312       2.76907257
Si       5.82447389       3.97960753       4.76203898
Si       6.73455130       4.93507173       3.89849400
Si       1.34733802       0.98732781       0.77994643
8
Lattice="4.557031245963347 0.4985715284866615 0.39385002251903223 1.8481768663302138 4.195157877418307 0.39385002251997936 1.8481768663309288 1.3543419593431991 3.99001570346079" Properties=species:S:1:pos:R:3 unique_starting_index=42 config_type=initial n_minim_iter=15 stress="0.7753758248216643 0.6404118998874342 0.5058978035865599 0.6404118998874342 0.37074309770961444 0.3707213497909845 0.5058978035865599 0.3707213497909845 0.1943038580377276" pbc="T T T"
Si       4.55971715       4.67199945       2.19815159
Si       5.82854988       2.81917391       2.35175138
Si       4.44401629       3.37790743       4.03620247
Si       5.56085864       5.61532965       3.10326363
Si       7.02964545       3.85491285       2.79446825
Si       5.79346242       4.00150779       4.74437031
Si       6.74189650       4.94045429       3.90274599
Si       1.32553374       0.97134966       0.76732437
8
Lattice="4.559991135756066 0.5012048378948548 0.39593022347407625 1.851579493661679 4.197187013507252 0.3959302234750309 1.8515794936624 1.3568354008806207 3.9915081439387565" Properties=species:S:1:pos:R:3 unique_starting_index=42 config_type=initial n_minim_iter=16 stress="-0.25558341583892485 0.036036983242932655 0.028467663816808604 0.036036983242932655 -0.27835273478648764 0.020861072494941374 0.028467663816808604 0.020861072494941374 -0.28828124786472475" pbc="T T T"
Si       4.56935915       4.67559416       2.19652634
Si       5.83488217       2.81947058       2.36001851
Si       4.44620673       3.38732714       4.04007578
Si       5.58467347       5.61954607       3.08339806
Si       7.04084002       3.84054999       2.81992322
Si       5.78313901       4.02974409       4.75307113
Si       6.74200855       4.94053640       3.90281085
Si       1.33141651       0.97566055       0.77072979
8
Lattice="4.560030193657102 0.49914686835118094 0.39430451621882284 1.8496288867323498 4.197844202041538 0.3943045162197832 1.849628886733075 1.3554059982846323 3.99252383536235" Properties=species:S:1:pos:R:3 unique_starting_index=42 config_type=initial n_minim_iter=17 stress="0.5102353129582105 0.48040602716433933 0.3795000592813603 0.48040602716433933 0.2066994153181852 0.27809722284897626 0.3795000592813603 0.27809722284897626 0.07434323302059005" pbc="T T T"
Si       4.56016610       4.67560048       2.20132845
Si       5.83211888       2.82211244       2.35037708
Si       4.44789345       3.37715339       4.03897022
Si       5.59012864       5.61661520       3.07579593
Si       7.03968861       3.83456300       2.82760251
Si       5.77708327       4.03737811       4.75197978
Si       6.73736988       4.93713718       3.90012562
Si       1.32875817       0.97371251       0.76919093
8
Lattice="4.561599521110668 0.4960125453356995 0.39182853610422785 1.8471129051261062 4.20028481794311 0.3918285361051991 1.8471129051268391 1.353562289751995 3.9954713465758216" Properties=species:S:1:pos:R:3 unique_starting_index=42 config_type=initial n_minim_iter=18 stress="0.3384427000090823 0.05653013819480062 0.04465637311544807 0.05653013819480062 0.30272515012333784 0.03272414072734788 0.04465637311544807 0.03272414072734788 0.2871505884960273" pbc="T T T"
Si       4.54620477       4.67659330       2.21492409
Si       5.82885986       2.83218756       2.33398756
Si       4.45651881       3.35978705       4.03678864
Si       5.59318911       5.61359147       3.07209529
Si       7.03772728       3.83184935       2.83218437
Si       5.77390485       4.04159179       4.74989491
Si       6.73267322       4.93369548       3.89740682
Si       1.32680888       0.97228408       0.76806253
8
Lattice="4.561394583479843 0.49757001463394196 0.3930588697336811 1.8485362912523673 4.199620226351941 0.39305886973465687 1.8485362912531031 1.3546053455278027 3.9945399833430426" Properties=species:S:1:pos:R:3 unique_starting_index=42 config_type=initial n_minim_iter=19 stress="0.923794410677615 0.5227912312252215 0.41298254398038725 0.5227912312252215 0.5934781850769512 0.3026331505279815 0.41298254398038725 0.3026331505279815 0.44944449775616463" pbc="T T T"
Si       4.54264413       4.67815224       2.22134860
Si       5.82927377       2.83754282       2.32874040
Si       4.46174999       3.35440034       4.03681794
Si       5.60172419       5.61527555       3.06465653
Si       7.04190425       3.82637934       2.84133045
Si       5.76994720       4.05179294       4.75325534
Si       6.73635264       4.93639175       3.89953676
Si       1.32550515       0.97132871       0.76730782
8
Lattice="4.5610348850318205 0.5009118237395 0.395698754918211 1.8516145107455784 4.198270546455409 0.39569875491918843 1.8516145107463153 1.3568610613608887 3.9926158275045087" Properties=species:S:1:pos:R:3 unique_starting_index=42 config_type=initial n_minim_iter=20 stress="0.21692696225232677 0.17733889890725676 0.14009008805532072 0.17733889890725676 0.10487857230248215 0.10265786126795086 0.14009008805532072 0.10265786126795086 0.05602011028182374" pbc="T T T"
Si       4.54593663       4.68037330       2.22454554
Si       5.83238349       2.84122483       2.33040366
Si       4.46619774       3.35644811       4.03823856
Si       5.60843113       5.61909917       3.06077565
Si       7.04757065       3.82381779       2.84732999
Si       5.76921159       4.05905899       4.75787351
Si       6.74207631       4.94058605       3.90285008
Si       1.32628924       0.97190329       0.76776172
8
Lattice="4.559239700429662 0.49931742229983267 0.3944392464885362 1.8495533890847298 4.197039050939434 0.39443924648952844 1.849553389085477 1.355350673692122 3.9917093663744394" Properties=species:S:1:pos:R:3 unique_starting_index=42 config_type=initial n_minim_iter=21 stress="0.6909137011711365 0.5308134926210244 0.4193197847794633 0.5308134926210244 0.3555287541626987 0.3072770735617782 0.4193197847794633 0.3072770735617782 0.20928486165807017" pbc="T T T"
Si       4.53191101       4.68058592       2.23243504
Si       5.82836114       2.84578903       2.31550413
Si       4.46933823       3.34074711       4.03661896
Si       5.62007682       5.61211742       3.04432945
Si       7.04442138       3.81087603       2.86398645
Si       5.75592232       4.07547030       4.75488877
Si       6.73659559       4.93656978       3.89967740
Si       1.32187115       0.96866571       0.76520417
