24
Lattice="9.194341849567108 -4.000101160615175e-15 3.2837098712044643e-15 4.597170924783557 7.962533612803516 -5.564818944491973e-15 4.597170924783549 2.6541778709345145 11.744820093456472" Properties=species:S:1:pos:R:3 unique_starting_index=24 config_type=initial n_minim_iter=1 energy=-3890.3134144721057 free_energy=-3890.3134144721057 pbc="T T T"
Si      10.06959871       4.11144435      11.50915505
Si       9.79326817       6.66480611      11.50915505
Si       7.72015729       5.14881597      11.50915505
Si      10.14625347       4.43660704       8.69308434
Si       9.47334165       6.56860974       8.69308434
Si       7.96342905       4.91984965       8.69308434
Si      11.07658459       4.09339484       1.37859002
Si       9.30540656       7.54590623       1.37859002
Si       7.20103302       4.28576537       1.37859002
Si      10.05951693       6.79099570       3.36908956
Si       7.47774952       5.31629936       3.36908956
Si      10.04575772       3.81777137       3.36908956
Si      11.16828260       7.86097357       9.45859979
Si       5.99673867       5.74152967       9.45859979
Si      10.41800290       2.32256320       9.45859979
Si      12.20686111       4.32838568       9.67433519
Si       8.53676027       8.40725898       9.67433519
Si       6.83940279       3.18942177       9.67433519
Si      10.41696927       9.67714281       8.26029483
Si       4.79954663       4.18278861       8.26029483
Si      12.36650827       2.06513501       8.26029483
Si       5.20920374       1.47784406       2.32102810
Si       5.30988857       3.77238074       2.32102810
Si       3.27241910       2.71230802       2.32102810
24
Lattice="8.923086261085972 -5.943255258736976e-15 1.2684984840449335e-15 4.461543130542989 7.727619382260343 -3.472415310939636e-15 4.461543130542978 2.5758731274201283 12.283574728167295" Properties=species:S:1:pos:R:3 unique_starting_index=24 config_type=initial n_minim_iter=2 stress="-0.0064547067205420645 -7.576218327905946e-17 -1.8848792310603372e-16 -7.576218327905946e-17 -0.006454706720542501 1.0394361823580302e-16 -1.8848792310603372e-16 1.0394361823580302e-16 0.006890921132053439" pbc="T T T"
Si       9.77080384       3.96663523      12.04552572
Si       9.52556283       6.47844672      12.04552572
Si       7.47289078       5.01015604      12.04552572
Si       9.86464222       4.29883716       9.05577043
Si       9.19094834       6.39361218       9.05577043
Si       7.71366689       4.76278866       9.05577043
Si      10.73024979       4.01231932       1.42195359
Si       9.00627627       7.28650925       1.42195359
Si       7.03273138       4.15640943       1.42195359
Si       9.74104472       6.56120984       3.51515587
Si       7.29347487       5.15538727       3.51515587
Si       9.73473786       3.73864089       3.51515587
Si      10.86740338       7.64108241       9.92441105
Si       5.79509847       5.59090620       9.92441105
Si      10.10675560       2.22324939       9.92441105
Si      11.85233546       4.19871171      10.12647966
Si       8.28381290       8.16506775      10.12647966
Si       6.63310909       3.09145854      10.12647966
Si      10.06556088       9.39987220       8.63396361
Si       4.67286308       4.01709533       8.63396361
Si      12.03083349       2.03827047       8.63396361
Si       5.06696875       1.41398877       2.44845461
Si       5.16505080       3.68112927       2.44845461
Si       3.15260851       2.63250057       2.44845461
24
Lattice="8.883982518285062 -7.47132449191261e-15 -1.4924573058012073e-15 4.44199125914253 7.693754547611695 -1.0507246371719757e-15 4.441991259142517 2.564584849203917 12.582133900168955" Properties=species:S:1:pos:R:3 unique_starting_index=24 config_type=initial n_minim_iter=3 stress="0.005386423397657447 -1.0714896916953059e-16 -1.6937282837400497e-16 -1.0714896916953059e-16 0.0053864233976566875 -6.477348829013491e-17 -1.6937282837400497e-16 -6.477348829013491e-17 0.013617605223968862" pbc="T T T"
Si       9.72545771       3.90882175      12.35437144
Si       9.52009636       6.46808257      12.35437144
Si       7.40639215       5.01060401      12.35437144
Si       9.85368739       4.26556309       9.21591344
Si       9.14703446       6.40076206       9.21591344
Si       7.65122438       4.72118318       9.21591344
Si      10.64976605       4.05801425       1.42416216
Si       8.92873770       7.19396082       1.42416216
Si       7.07344248       4.13553326       1.42416216
Si       9.66302701       6.48475681       3.58384455
Si       7.32048651       5.12604846       3.58384455
Si       9.66843271       3.77670306       3.58384455
Si      10.86715698       7.62686839      10.22090599
Si       5.72932388       5.59779982      10.22090599
Si      10.05546536       2.16284012      10.22090599
Si      11.81019597       4.17700232      10.38787820
Si       8.24547604       8.13942858      10.38787820
Si       6.59627421       3.07107743      10.38787820
Si       9.95113525       9.37263836       8.83385179
Si       4.67545361       3.93161674       8.83385179
Si      12.02535737       2.08325323       8.83385179
Si       5.06401913       1.37365444       2.54037756
Si       5.16235243       3.69874199       2.54037756
Si       3.09960089       2.62135735       2.54037756
24
Lattice="8.684868119891382 -1.3428423295858035e-14 -5.804882463863413e-15 4.342434059945686 7.5213164203434975 1.744582375793094e-15 4.342434059945669 2.5071054734478553 12.503052094497063" Properties=species:S:1:pos:R:3 unique_starting_index=24 config_type=initial n_minim_iter=4 stress="-0.008632555382994173 -2.6534866968411086e-16 -3.232577543590244e-16 -2.6534866968411086e-16 -0.008632555382995007 -1.016977323296237e-17 -3.232577543590244e-16 -1.016977323296237e-17 0.005557737102749708" pbc="T T T"
Si       9.50391977       3.78148111      12.29374236
Si       9.34291678       6.33989540      12.29374236
Si       7.20776651       4.92125558      12.29374236
Si       9.66458668       4.15541349       9.09791290
Si       8.93874839       6.29207084       9.09791290
Si       7.45126800       4.59514776       9.09791290
Si      10.37773131       4.02872053       1.38339631
Si       8.69189539       6.97301869       1.38339631
Si       6.98497635       4.04089287       1.38339631
Si       9.41129125       6.29196408       3.54302407
Si       7.21508902       5.00443527       3.54302407
Si       9.42822279       3.74623275       3.54302407
Si      10.66951596       7.47512417      10.21252320
Si       5.56132997       5.50250979      10.21252320
Si       9.82375713       2.06499814      10.21252320
Si      11.55533041       4.08022497      10.33805196
Si       8.05849170       7.96709720      10.33805196
Si       6.44078095       2.99530993      10.33805196
Si       9.65944684       9.17609773       8.76897590
Si       4.59327821       3.77727749       8.76897590
Si      11.80187800       2.08925688       8.76897590
Si       4.96886882       1.30956838       2.55560621
Si       5.06631336       3.64838244       2.55560621
Si       2.99211870       2.56336485       2.55560621
24
Lattice="8.896369514195776 -2.0850804738856598e-14 -1.1082253130720749e-14 4.4481847570978825 7.704482000746918 6.306700352134741e-15 4.4481847570978585 2.5681606669156714 11.578533410956089" Properties=species:S:1:pos:R:3 unique_starting_index=24 config_type=initial n_minim_iter=5 stress="-0.0016273031682937013 -3.066485873393278e-16 -2.0536502108308996e-16 -3.066485873393278e-16 -0.0016273031682945967 1.1525115060485142e-16 -2.0536502108308996e-16 1.1525115060485142e-16 -0.002891280667350069" pbc="T T T"
Si       9.71973794       3.85371198      11.40290284
Si       9.59545670       6.49068399      11.40290284
Si       7.37391257       5.06456727      11.40290284
Si       9.91229729       4.24681808       8.38292225
Si       9.15873716       6.46089222       8.38292225
Si       7.61807277       4.70125293       8.38292225
Si      10.61035838       4.16029665       1.26099593
Si       8.88463637       7.10869158       1.26099593
Si       7.19411247       4.13997501       1.26099593
Si       9.62657998       6.41740772       3.26865875
Si       7.42181004       5.12815896       3.26865875
Si       9.64071719       3.86339656       3.26865875
Si      10.94984143       7.67170030       9.49172150
Si       5.67393008       5.64699069       9.49172150
Si      10.06533571       2.09027224       9.49172150
Si      11.84355179       4.18657452       9.59055290
Si       8.24528236       8.16352946       9.59055290
Si       6.60027307       3.05885925       9.59055290
Si       9.89099368       9.37727289       8.11554106
Si       4.72628476       3.87721535       8.11554106
Si      12.07182877       2.15447499       8.11554106
Si       5.09450687       1.33137797       2.37692986
Si       5.19610805       3.74628338       2.37692986
Si       3.05393802       2.62681988       2.37692986
24
Lattice="8.914240746572904 -2.918977244441555e-14 -1.645346811475904e-14 4.457120373286446 7.71995894198243 1.1984827434442199e-14 4.457120373286416 2.5733196473275184 11.396032020256689" Properties=species:S:1:pos:R:3 unique_starting_index=24 config_type=initial n_minim_iter=6 stress="0.003077388978512093 -3.0238376340039924e-16 -3.577358474310903e-16 -3.0238376340039924e-16 0.00307738897851144 2.7191180409705845e-16 -3.577358474310903e-16 2.7191180409705845e-16 0.0025593290936960517" pbc="T T T"
Si       9.71394341       3.81485065      11.24661697
Si       9.66775133       6.50509644      11.24661697
Si       7.36102617       5.11997003      11.24661697
Si       9.95624711       4.23802458       8.16083134
Si       9.18012010       6.50335064       8.16083134
Si       7.60635369       4.69854190       8.16083134
Si      10.58402382       4.26172326       1.19005346
Si       8.84570809       7.03517188       1.19005346
Si       7.31298900       4.14302198       1.19005346
Si       9.61010945       6.35460283       3.20083033
Si       7.52017840       5.14529751       3.20083033
Si       9.61243305       3.94001678       3.20083033
Si      11.02774597       7.71947219       9.41799610
Si       5.62934860       5.69057206       9.41799610
Si      10.08562634       2.02987287       9.41799610
Si      11.88671689       4.20615491       9.47346458
Si       8.24248515       8.19112134       9.47346458
Si       6.61351886       3.04264086       9.47346458
Si       9.85246391       9.38325104       7.97465504
Si       4.77611488       3.84085852       7.97465504
Si      12.11414211       2.21580756       7.97465504
Si       5.12392077       1.30244345       2.37635699
Si       5.22433036       3.78622383       2.37635699
Si       3.02310865       2.63129089       2.37635699
24
Lattice="8.947735945076268 -3.118958946180241e-14 -1.5760962240273152e-14 4.473867972538133 7.748966634791144 1.186985210610664e-14 4.473867972538098 2.582988878263755 10.942452698738569" Properties=species:S:1:pos:R:3 unique_starting_index=24 config_type=initial n_minim_iter=7 stress="0.0023838027284487267 -3.166619327283487e-16 -4.625546993319363e-16 -3.166619327283487e-16 0.0023838027284481646 3.7731644803144507e-16 -4.625546993319363e-16 3.7731644803144507e-16 -0.00018256246510986956" pbc="T T T"
Si       9.71845503       3.79606203      10.81386572
Si       9.74875733       6.51839793      10.81386572
Si       7.37599414       5.18347254      10.81386572
Si      10.00524719       4.23790117       7.75855728
Si       9.22271733       6.54584765       7.75855728
Si       7.61524198       4.71418368       7.75855728
Si      10.58011228       4.37044100       1.08907719
Si       8.82050193       6.97742551       1.08907719
Si       7.44259229       4.15006599       1.08907719
Si       9.62945213       6.31439458       3.06819027
Si       7.61231882       5.18215288       3.06819027
Si       9.60143555       4.00138504       3.06819027
Si      11.11150158       7.77829499       9.10886367
Si       5.60351915       5.73369515       9.10886367
Si      10.12818577       1.98594236       9.10886367
Si      11.94996385       4.24180010       9.12969666
Si       8.24698243       8.22807223       9.12969666
Si       6.64626021       3.02806018       9.12969666
Si       9.85991413       9.38935644       7.64725759
Si       4.83409273       3.84425790       7.64725759
Si      12.14919964       2.26431816       7.64725759
Si       5.16103674       1.28482210       2.31419213
Si       5.25452810       3.82717788       2.31419213
Si       3.00603773       2.63696588       2.31419213
24
Lattice="8.982827606246012 -3.4192179038442974e-14 -1.607980434865953e-14 4.49141380312301 7.7793569048251525 1.0535742090602735e-14 4.49141380312297 2.593118968275088 10.432964206013553" Properties=species:S:1:pos:R:3 unique_starting_index=24 config_type=initial n_minim_iter=8 stress="0.0032159557075700095 -1.9461513172828645e-16 -3.6235266506060845e-16 -1.9461513172828645e-16 0.0032159557075696977 4.65218487816835e-16 -3.6235266506060845e-16 4.65218487816835e-16 -0.0030894595405001617" pbc="T T T"
Si       9.70910108       3.78595716      10.31549994
Si       9.83236870       6.51534960      10.31549994
Si       7.40701170       5.25740627      10.31549994
Si      10.04455453       4.23411579       7.31376462
Si       9.27652521       6.58178150       7.31376462
Si       7.62740173       4.74281575       7.31376462
Si      10.56986462       4.51094202       0.96483644
Si       8.77413163       6.89830026       0.96483644
Si       7.60448523       4.14947075       0.96483644
Si       9.67485126       6.27821886       2.93426558
Si       7.69113167       5.23955754       2.93426558
Si       9.58249855       4.04093664       2.93426558
Si      11.19529862       7.84457991       8.75673304
Si       5.57439952       5.77312306       8.75673304
Si      10.17878333       1.94101007       8.75673304
Si      12.02044697       4.29447246       8.74557406
Si       8.23630859       8.26277621       8.74557406
Si       6.69172592       3.00146437       8.74557406
Si       9.88590580       9.37587226       7.28133709
Si       4.90295785       3.87350943       7.28133709
Si      12.15961782       2.30933134       7.28133709
Si       5.20408773       1.26814078       2.24636614
Si       5.28254072       3.87280179       2.24636614
Si       2.98761162       2.63841356       2.24636614
24
Lattice="8.96226004438967 -3.3347523643436116e-14 -1.9568419616578255e-14 4.481130022194842 7.761544873763652 7.935635531910972e-15 4.481130022194795 2.5871816245879193 9.937842509096058" Properties=species:S:1:pos:R:3 unique_starting_index=24 config_type=initial n_minim_iter=9 stress="0.002613634012088497 6.295619518135064e-17 -3.4898931665580346e-16 6.295619518135064e-17 0.0026136340120883734 5.21275690076196e-16 -3.4898931665580346e-16 5.21275690076196e-16 -0.006016621729836904" pbc="T T T"
Si       9.61246470       3.79149018       9.80054927
Si       9.83476003       6.42889353       9.80054927
Si       7.43955406       5.30270526       9.80054927
Si       9.98512243       4.19936536       6.89916729
Si       9.29520090       6.54768701       6.89916729
Si       7.60645546       4.77603661       6.89916729
Si      10.49680134       4.65126066       0.82036331
Si       8.64800863       6.76486629       0.82036331
Si       7.74196882       4.10696202       0.82036331
Si       9.73810359       6.25149783       2.83869249
Si       7.64151147       5.30769618       2.83869249
Si       9.50716373       3.96389497       2.83869249
Si      11.18100179       7.86302011       8.40103534
Si       5.52444313       5.75152154       8.40103534
Si      10.18133386       1.90854733       8.40103534
Si      12.02098911       4.35356244       8.37949334
Si       8.14372897       8.23370073       8.37949334
Si       6.72206071       2.93582581       8.37949334
Si       9.91331912       9.26252656       6.92812413
Si       4.94627633       3.95392292       6.92812413
Si      12.02718334       2.30663950       6.92812413
Si       5.21362750       1.26297365       2.18649584
Si       5.26167814       3.88364704       2.18649584
Si       2.96808309       2.61492342       2.18649584
24
Lattice="8.84825771188215 -2.883134741011141e-14 -2.095119963556371e-14 4.4241288559410785 7.662815957721463 6.166508280224067e-15 4.424128855941033 2.554271985907189 9.913554428078758" Properties=species:S:1:pos:R:3 unique_starting_index=24 config_type=initial n_minim_iter=10 stress="0.000342060216408747 2.143923914604461e-16 -5.571229093960592e-16 2.143923914604461e-16 0.0003420602164081973 4.800704821107756e-16 -5.571229093960592e-16 4.800704821107756e-16 -2.483160673219465e-06" pbc="T T T"
Si       9.44220112       3.77359771       9.73992709
Si       9.70738251       6.29038718       9.73992709
Si       7.39518819       5.26164626       9.73992709
Si       9.82560512       4.12422379       6.86640550
Si       9.21202941       6.44711175       6.86640550
Si       7.50713728       4.75429561       6.86640550
Si      10.34527495       4.67346759       0.75833931
Si       8.47653541       6.62253712       0.75833931
Si       7.72296145       4.02962645       0.75833931
Si       9.70999203       6.21461863       2.87425641
Si       7.45950092       5.30179046       2.87425641
Si       9.37527886       3.80922207       2.87425641
Si      11.02580264       7.77498111       8.39881686
Si       5.45028206       5.66113463       8.39881686
Si      10.06868711       1.88951541       8.39881686
Si      11.88077184       4.34723008       8.38445969
Si       7.99131694       8.11543519       8.38445969
Si       6.67268304       2.86296588       8.38445969
Si       9.84167309       9.08401421       6.90545707
Si       4.90869092       3.98113181       6.90545707
Si      11.79440780       2.26048514       6.90545707
Si       5.15558069       1.25901772       2.21321452
Si       5.18012516       3.83535500       2.21321452
Si       2.93667939       2.56844248       2.21321452
24
Lattice="8.733054054210148 -2.8933076095975813e-14 -1.8854941204205326e-14 4.366527027105079 7.5630466635686275 2.854910469019606e-15 4.366527027105036 2.521015554522905 9.65235073799237" Properties=species:S:1:pos:R:3 unique_starting_index=24 config_type=initial n_minim_iter=11 stress="-0.008551748349072418 1.8250530365457526e-16 -6.439929512544078e-16 1.8250530365457526e-16 -0.008551748349072952 6.117758890634761e-16 -6.439929512544078e-16 6.117758890634761e-16 -0.002100335639889372" pbc="T T T"
Si       9.25841229       3.71890732       9.45986691
Si       9.61623288       6.15856658       9.45986691
Si       7.32451569       5.24861868       9.45986691
Si       9.69221402       4.02664025       6.61980222
Si       9.13282748       6.38038344       6.61980222
Si       7.37411935       4.71906889       6.61980222
Si      10.15578445       4.76382961       0.65088735
Si       8.26261755       6.41325252       0.65088735
Si       7.78075886       3.94901044       0.65088735
Si       9.66016919       6.13881580       2.82862503
Si       7.31965221       5.29654402       2.82862503
Si       9.21933946       3.69073275       2.82862503
Si      10.91418642       7.70259179       8.24212459
Si       5.33837386       5.60066681       8.24212459
Si       9.94660058       1.82283398       8.24212459
Si      11.74791315       4.34609854       8.20665300
Si       7.82831892       8.00094196       8.20665300
Si       6.62292879       2.77905208       8.20665300
Si       9.71821494       8.89910574       6.70429668
Si       4.90014812       3.96666815       6.70429668
Si      11.58079779       2.26031868       6.70429668
Si       5.11144286       1.22856044       2.21289453
Si       5.11336721       3.81235915       2.21289453
Si       2.87476971       2.52212633       2.21289453
24
Lattice="8.71796558658207 -2.7911643630751942e-14 -1.4308100137844582e-14 4.358982793291037 7.549979667298534 1.3133321493220342e-15 4.358982793291003 2.5166598890995364 9.396122790796879" Properties=species:S:1:pos:R:3 unique_starting_index=24 config_type=initial n_minim_iter=12 stress="-0.010109260725632677 6.606150028617853e-17 -4.462741568245648e-16 6.606150028617853e-17 -0.010109260725633321 5.210870107491976e-16 -4.462741568245648e-16 5.210870107491976e-16 -0.0011302966669366442" pbc="T T T"
Si       9.19516411       3.70035270       9.19467218
Si       9.63374880       6.11306936       9.19467218
Si       7.32498254       5.28653652       9.19467218
Si       9.67887664       3.97744266       6.38779758
Si       9.15192560       6.39343172       6.38779758
Si       7.32309322       4.72908420       6.38779758
Si      10.10236116       4.87949950       0.56622898
Si       8.15897920       6.30915165       0.56622898
Si       7.89255510       3.91130743       0.56622898
Si       9.70024121       6.13627697       2.77499345
Si       7.27163796       5.33251683       2.77499345
Si       9.18201628       3.63116479       2.77499345
Si      10.93009096       7.71064212       8.07760059
Si       5.29327286       5.61041538       8.07760059
Si       9.93053163       1.77890108       8.07760059
Si      11.74244959       4.37920585       8.02307040
Si       7.77220200       7.97965672       8.02307040
Si       6.63924387       2.74109601       8.02307040
Si       9.68874276       8.83597229       6.50476108
Si       4.93938245       3.97271122       6.50476108
Si      11.52577024       2.29127508       6.50476108
Si       5.11811427       1.21459402       2.20345863
Si       5.10703830       3.82511997       2.20345863
Si       2.85179450       2.51026492       2.20345863
24
Lattice="8.795802296488269 -2.442815474353885e-14 -9.11305103765082e-15 4.397901148244136 7.617388235424303 2.515523659640213e-15 4.397901148244105 2.539129411808125 9.099510408848046" Properties=species:S:1:pos:R:3 unique_starting_index=24 config_type=initial n_minim_iter=13 stress="-0.004070961008984679 -4.771027776816132e-17 -3.998922518277949e-16 -4.771027776816132e-17 -0.004070961008985378 4.749175741197128e-16 -3.998922518277949e-16 4.749175741197128e-16 -0.00030392632819248994" pbc="T T T"
Si       9.24416931       3.71441360       8.89610135
Si       9.75274252       6.14847866       8.89610135
Si       7.39049374       5.37188345       8.89610135
Si       9.77830842       3.96924367       6.14040057
Si       9.26498366       6.48364167       6.14040057
Si       7.34411350       4.78189038       6.14040057
Si      10.18744005       5.02230882       0.50180838
Si       8.14843667       6.31142747       0.50180838
Si       8.05152886       3.90103942       0.50180838
Si       9.82540537       6.21010303       2.70336983
Si       7.30079405       5.40399914       2.70336983
Si       9.26120615       3.62067355       2.70336983
Si      11.06857700       7.79001789       7.86459506
Si       5.31096183       5.69065993       7.86459506
Si      10.00786674       1.75409790       7.86459506
Si      11.85313718       4.44158472       7.79381606
Si       7.81850993       8.04432555       7.79381606
Si       6.71575847       2.74886544       7.79381606
Si       9.74051875       8.88943168       6.27331027
Si       5.02287068       3.99082085       6.27331027
Si      11.62401614       2.35452319       6.27331027
Si       5.16948857       1.21735668       2.17865179
Si       5.15679533       3.86823009       2.17865179
Si       2.86741823       2.53180071       2.17865179
24
Lattice="8.867267807460387 -2.073704542857688e-14 -6.390289082883463e-15 4.433633903730192 7.679279183420593 2.1500862206103426e-15 4.433633903730166 2.5597597278068878 9.051917060607025" Properties=species:S:1:pos:R:3 unique_starting_index=24 config_type=initial n_minim_iter=14 stress="0.005462039187509124 -2.7017840958997547e-17 -3.339405142532097e-16 -2.7017840958997547e-17 0.0054620391875084325 5.076202018846323e-16 -3.339405142532097e-16 5.076202018846323e-16 0.005080699622619594" pbc="T T T"
Si       9.32797729       3.73475522       8.84918364
Si       9.83615319       6.21088769       8.84918364
Si       7.43767162       5.41291469       8.84918364
Si       9.87081186       3.98780580       6.11135718
Si       9.34558767       6.55447093       6.11135718
Si       7.38540256       4.81628087       6.11135718
Si      10.30366998       5.05813874       0.51071196
Si       8.20222309       6.39417058       0.51071196
Si       8.09590902       3.90624828       0.51071196
Si       9.89744380       6.28638820       2.69013094
Si       7.34164096       5.42824366       2.69013094
Si       9.36271734       3.64392574       2.69013094
Si      11.17170285       7.84157012       7.81651492
Si       5.35768437       5.75419341       7.81651492
Si      10.07241487       1.76279407       7.81651492
Si      11.94019293       4.46415485       7.74767498
Si       7.89836676       8.10843298       7.74767498
Si       6.76324241       2.78596977       7.74767498
Si       9.79069841       8.98156141       6.22778103
Si       5.06092518       3.98821284       6.22778103
Si      11.75017851       2.38878335       6.22778103
Si       5.20051488       1.23107126       2.17718386
Si       5.20087050       3.88824237       2.17718386
Si       2.89951501       2.55996479       2.17718386
24
Lattice="8.903446557585223 -1.2659877981772487e-14 -6.847309436981925e-15 4.451723278792606 7.710610900105879 -6.693048178873149e-16 4.451723278792582 2.5702036333686484 8.709120082706908" Properties=species:S:1:pos:R:3 unique_starting_index=24 config_type=initial n_minim_iter=15 stress="0.0033234117431771024 -7.279056225165131e-17 -1.9460333989727186e-16 -7.279056225165131e-17 0.003323411743176437 5.517320359444361e-16 -1.9460333989727186e-16 5.517320359444361e-16 -0.003698855432254278" pbc="T T T"
Si       9.36307695       3.72308237       8.50597446
Si       9.90106984       6.24712131       8.50597446
Si       7.44619155       5.45101736       8.50597446
Si       9.93799110       3.95887834       5.85560801
Si       9.40940746       6.62711359       5.85560801
Si       7.36293977       4.83522910       5.85560801
Si      10.39893187       5.13420577       0.48385492
Si       8.16107367       6.43863629       0.48385492
Si       8.15033280       3.84837898       0.48385492
Si       9.93009137       6.35798436       2.60444726
Si       7.33567057       5.42071921       2.60444726
Si       9.44457641       3.64251746       2.60444726
Si      11.26465914       7.86985733       7.52514583
Si       5.35906629       5.82055231       7.52514583
Si      10.08661292       1.73081139       7.52514583
Si      11.98177010       4.47143120       7.45893397
Si       7.94363416       8.14080169       7.45893397
Si       6.78493407       2.80898814       7.45893397
Si       9.77101114       9.03375828       5.95995281
Si       5.09792250       3.94506473       5.95995281
Si      11.84140470       2.44239803       5.95995281
Si       5.20419158       1.23879825       2.14113368
Si       5.22851912       3.88756299       2.14113368
Si       2.92245780       2.58424889       2.14113368
24
Lattice="8.874946621633752 -1.1153917341593127e-14 -8.341120382557101e-15 4.437473310816868 7.685929231565673 -3.5457156277193976e-15 4.437473310816842 2.5619764105219107 8.779838784154837" Properties=species:S:1:pos:R:3 unique_starting_index=24 config_type=initial n_minim_iter=16 stress="0.004152328592126198 -1.1382297391525936e-16 -3.3219994992857457e-16 -1.1382297391525936e-16 0.004152328592125486 3.5467720658529314e-16 -3.3219994992857457e-16 3.5467720658529314e-16 0.0010252864567653567" pbc="T T T"
Si       9.35912448       3.70530586       8.57284164
Si       9.86144112       6.25258663       8.57284164
Si       7.40427294       5.41396521       8.57284164
Si       9.92043002       3.93857320       5.92185584
Si       9.37877290       6.62205782       5.92185584
Si       7.32563561       4.81122668       5.92185584
Si      10.41516967       5.07864848       0.52224297
Si       8.14406892       6.48047728       0.52224297
Si       8.06559995       3.81273194       0.52224297
Si       9.86181791       6.37172131       2.62677627
Si       7.30091089       5.35472418       2.62677627
Si       9.46210974       3.64541221       2.62677627
Si      11.23558779       7.83008445       7.55310096
Si       5.35104642       5.81526223       7.55310096
Si      10.03820433       1.72651102       7.55310096
Si      11.92993704       4.42835870       7.50362112
Si       7.94985271       8.11744919       7.50362112
Si       6.74504879       2.82604980       7.50362112
Si       9.71670581       9.04274918       5.99781463
Si       5.06028894       3.89353948       5.99781463
Si      11.84784379       2.43556903       5.99781463
Si       5.16621180       1.24374623       2.16594513
Si       5.21472401       3.85219754       2.16594513
Si       2.93148280       2.58998470       2.16594513
24
Lattice="8.805355749470612 -8.627271585569558e-16 -8.755735176964454e-15 4.402677874735292 7.62566176840089 -6.414762189792751e-15 4.402677874735271 2.54188725613365 8.719451543213768" Properties=species:S:1:pos:R:3 unique_starting_index=24 config_type=initial n_minim_iter=17 stress="-0.0025729166987727876 -3.7014887122907844e-16 -4.555751347991091e-16 -3.7014887122907844e-16 -0.002572916698773516 2.0669173649574565e-16 -4.555751347991091e-16 2.0669173649574565e-16 0.0012515745958446" pbc="T T T"
Si       9.30179386       3.67142150       8.50037185
Si       9.78026941       6.21987903       8.50037185
Si       7.33400267       5.36002225       8.50037185
Si       9.85535852       3.87599662       5.88119590
Si       9.32631982       6.59699253       5.88119590
Si       7.23438759       4.77833363       5.88119590
Si      10.40019608       5.04288861       0.54771082
Si       8.04334293       6.48538971       0.54771082
Si       7.97252692       3.72304446       0.54771082
Si       9.73778507       6.37647524       2.62824399
Si       7.21962854       5.24493163       2.62824399
Si       9.45865231       3.62991591       2.62824399
Si      11.17833338       7.76947971       7.45798228
Si       5.29297713       5.79598083       7.45798228
Si       9.94475542       1.68586224       7.45798228
Si      11.82648537       4.37108800       7.44383422
Si       7.91199469       8.05649277       7.44383422
Si       6.67758587       2.82374201       7.44383422
Si       9.61800377       9.00609564       5.93061859
Si       5.00220112       3.82638778       5.93061859
Si      11.79586104       2.41883936       5.93061859
Si       5.09297475       1.24387058       2.19317923
Si       5.18164398       3.78871023       2.19317923
Si       2.93341358       2.59308021       2.19317923
24
Lattice="8.722914602999534 2.611878668841741e-14 -1.0419966617388137e-15 4.36145730149973 7.554265641239839 -1.0072673916592493e-14 4.361457301499734 2.518088547079965 8.106784766357862" Properties=species:S:1:pos:R:3 unique_starting_index=24 config_type=initial n_minim_iter=18 stress="-0.01989397755200257 -3.774188248235917e-16 -2.515779115908358e-16 -3.774188248235917e-16 -0.019893977552002996 2.6877582334973017e-16 -2.515779115908358e-16 2.6877582334973017e-16 0.00028880749665893157" pbc="T T T"
Si       9.19274886       3.66620299       7.83602601
Si       9.67442899       6.12805255       7.83602601
Si       7.30156466       5.31427500       7.83602601
Si       9.73020526       3.72092751       5.41224930
Si       9.35830795       6.56614118       5.41224930
Si       7.08022929       4.82146183       5.41224930
Si      10.45960827       5.13818159       0.54756937
Si       7.76622842       6.48919569       0.54756937
Si       7.94290581       3.48115326       0.54756937
Si       9.53574233       6.47434461       2.54766663
Si       7.07101027       5.02102280       2.54766663
Si       9.56198990       3.61316313       2.54766663
Si      11.18201483       7.76275948       6.80404599
Si       5.13207401       5.80252917       6.80404599
Si       9.85465366       1.54324188       6.80404599
Si      11.71631006       4.33814084       6.93825729
Si       7.83073314       7.97755173       6.93825729
Si       6.62169931       2.79283796       6.93825729
Si       9.57165039       8.93789418       5.42912415
Si       4.91955973       3.82034530       5.42912415
Si      11.67753239       2.35029105       5.42912415
Si       4.94447337       1.26106708       2.21664955
Si       5.15856092       3.65150601       2.21664955
Si       2.98133631       2.64169181       2.21664955
24
Lattice="8.736017913661453 3.767370457541685e-14 -4.900652075603023e-15 4.368008956830676 7.565613441146741 -1.0525763530483338e-14 4.368008956830685 2.521871147048938 7.80636262631204" Properties=species:S:1:pos:R:3 unique_starting_index=24 config_type=initial n_minim_iter=19 stress="-0.025571255752391008 -6.705038775790077e-16 -3.520898490656776e-16 -6.705038775790077e-16 -0.025571255752391008 1.4032488484153092e-16 -3.520898490656776e-16 1.4032488484153092e-16 -0.011983855519599974" pbc="T T T"
Si       9.19625091       3.67366322       7.52107415
Si       9.69242383       6.12735530       7.52107415
Si       7.31937769       5.33020762       7.52107415
Si       9.73699108       3.67452561       5.18252836
Si       9.42130689       6.59521883       5.18252836
Si       7.04975446       4.86148169       5.18252836
Si      10.53899199       5.21284911       0.54013811
Si       7.68807921       6.52061024       0.54013811
Si       7.98098124       3.39776678       0.54013811
Si       9.50227684       6.54525644       2.49316059
Si       7.05253818       4.95658492       2.49316059
Si       9.65323741       3.62938477       2.49316059
Si      11.25236344       7.79908634       6.50749334
Si       5.09164634       5.84528943       6.50749334
Si       9.86404265       1.48685037       6.50749334
Si      11.73245014       4.34597281       6.68915508
Si       7.84208703       7.98761346       6.68915508
Si       6.63351527       2.79763986       6.68915508
Si       9.58802682       8.96172734       5.19064813
Si       4.91693801       3.82261113       5.19064813
Si      11.70308760       2.34688766       5.19064813
Si       4.91269067       1.27205500       2.20912912
Si       5.17803977       3.61848742       2.20912912
Si       3.01329513       2.67507027       2.20912912
24
Lattice="8.8963553255779 5.280726775442905e-14 -6.7478927170365316e-15 4.448177662788885 7.704469713043441 -6.08012011155522e-15 4.448177662788901 2.5681565710145176 7.6239501399017735" Properties=species:S:1:pos:R:3 unique_starting_index=24 config_type=initial n_minim_iter=20 stress="-0.010031289637574842 -5.158506617649938e-16 -3.3453011022048723e-16 -5.158506617649938e-16 -0.01003128963757468 6.406969324073556e-17 -3.3453011022048723e-16 6.406969324073556e-17 -0.0075493224790243825" pbc="T T T"
Si       9.37076273       3.72786023       7.33682801
Si       9.87890674       6.25138846       7.33682801
Si       7.43939518       5.42968997       7.33682801
Si       9.91104004       3.70696793       5.02455471
Si       9.62686135       6.72972849       5.02455471
Si       7.15116326       4.97224224       5.02455471
Si      10.77853801       5.34448463       0.57085257
Si       7.77498130       6.66224542       0.57085257
Si       8.13554533       3.40220861       0.57085257
Si       9.56849492       6.68185037       2.46094670
Si       7.22181014       4.94563450       2.46094670
Si       9.89875958       3.78145379       2.46094670
Si      11.53010841       7.96622296       6.29906713
Si       5.12870410       6.00225531       6.29906713
Si      10.03025214       1.44046039       6.29906713
Si      11.93824764       4.40645421       6.53070737
Si       8.00748466       8.13559863       6.53070737
Si       6.74333235       2.86688583       6.53070737
Si       9.75153086       9.16900323       5.03775863
Si       4.97635461       3.86057184       5.03775863
Si      11.96117917       2.37936359       5.03775863
Si       4.96685610       1.29584663       2.22360526
Si       5.29069029       3.65350025       2.22360526
Si       3.08698527       2.75512208       2.22360526
24
Lattice="8.953714680218148 5.436985679530984e-14 -7.460019203471686e-15 4.476857340109008 7.754144371306576 -7.375970114071793e-15 4.476857340109024 2.5847147904355614 7.653598321199488" Properties=species:S:1:pos:R:3 unique_starting_index=24 config_type=initial n_minim_iter=21 stress="-0.001073574015588595 -4.914108575266176e-16 -3.514125634273705e-16 -4.914108575266176e-16 -0.0010735740155885414 1.2344033897212788e-16 -3.514125634273705e-16 1.2344033897212788e-16 -0.0013334765293582247" pbc="T T T"
Si       9.42403136       3.74192534       7.37185371
Si       9.95481038       6.29048790       7.37185371
Si       7.48230095       5.47587474       7.37185371
Si       9.97438716       3.73553126       5.02545636
Si       9.68516992       6.77030704       5.02545636
Si       7.20158562       5.00244967       5.02545636
Si      10.82109649       5.39403072       0.57232807
Si       7.82551260       6.67432910       0.57232807
Si       8.21453362       3.43992816       0.57232807
Si       9.61386605       6.68974186       2.46813956
Si       7.30700905       4.98098130       2.46813956
Si       9.94026760       3.83756482       2.46813956
Si      11.61983240       8.02336634       6.33081450
Si       5.14907319       6.05138688       6.33081450
Si      10.09223711       1.43353475       6.33081450
Si      12.01603971       4.43852315       6.55937406
Si       8.05553481       8.18693407       6.55937406
Si       6.78956818       2.88283075       6.55937406
Si       9.81372974       9.22373296       5.05834849
Si       5.01257654       3.88707278       5.05834849
Si      12.03483642       2.39748223       5.05834849
Si       5.01003814       1.29553897       2.23599783
Si       5.32672505       3.69105082       2.23599783
Si       3.09380748       2.76755381       2.23599783
