10
Lattice="5.83873427931612 1.848045194410453e-12 -8.070790516097576e-15 -8.869337634412435e-13 2.802188271376573 8.221823566408371e-08 1.3701691277688307e-14 -2.9083370644303663e-07 9.912287639512886" Properties=species:S:1:pos:R:3 unique_starting_index=72 config_type=initial n_minim_iter=1 energy=-1626.6040475068073 free_energy=-1626.6040475068073 pbc="T T T"
Si       4.83434185       3.19834748       3.20108881
Si       4.83434185      -0.39615950       6.71119891
Si       1.91497471       1.79725339       1.75505515
Si       1.91497471       1.00493459       8.15723257
Si       1.32702587       0.29322166       3.74288276
Si       1.32702587       2.50896632       6.16940496
Si       4.24639301       1.69431587       1.21326111
Si       4.24639301       1.10787211       8.69902661
Si       0.56146577       0.00000000       0.00000000
Si       3.48083291       1.40109399       4.95614386
10
Lattice="5.831598136868506 1.845786634340074e-12 -8.084676733948243e-15 -8.845046374870591e-13 2.7945138671492056 8.199306307849963e-08 1.3590076385257989e-14 -2.893203134062026e-07 9.860707692629008" Properties=species:S:1:pos:R:3 unique_starting_index=72 config_type=initial n_minim_iter=2 stress="-0.0034130602012500217 -3.227202228073994e-16 -1.8346114762969518e-16 -3.227202228073994e-16 -0.0015792468527102044 3.199548946447628e-11 -1.8346114762969518e-16 3.199548946447628e-11 -0.0026697411918329673" pbc="T T T"
Si       4.82797470       3.19008272       3.18559509
Si       4.82797470      -0.39556914       6.67511269
Si       1.91217563       1.79282583       1.74475890
Si       1.91217563       1.00168775       8.11594887
Si       1.32613338       0.29246766       3.72564472
Si       1.32613338       2.50204592       6.13506305
Si       4.24193245       1.68972467       1.20470918
Si       4.24193245       1.10478891       8.65599859
Si       0.56023789       0.00000000       0.00000000
Si       3.47603696       1.39725679       4.93035389
10
Lattice="5.866574025975836 1.8568566513461164e-12 -8.146062528323009e-15 -8.835695440606332e-13 2.7915589699636585 8.190636425275818e-08 1.3529686038392656e-14 -2.8850861295520395e-07 9.833043057606996" Properties=species:S:1:pos:R:3 unique_starting_index=72 config_type=initial n_minim_iter=3 stress="0.002440024875763537 1.124319542242686e-15 -1.0210140897722993e-15 1.124319542242686e-15 -0.0011179901236043365 6.205864514935011e-11 -1.0210140897722993e-15 6.205864514935011e-11 -0.003233101586036735" pbc="T T T"
Si       4.85563855       3.18826834       3.18116901
Si       4.85563855      -0.39670966       6.65187413
Si       1.92235154       1.79248890       1.73535266
Si       1.92235154       0.99906978       8.09769048
Si       1.33651246       0.29259383       3.72348246
Si       1.33651246       2.49896485       6.10956068
Si       4.26979947       1.68837339       1.19303912
Si       4.26979947       1.10318529       8.64000402
Si       0.56133252       0.00000000       0.00000000
Si       3.49461954       1.39577934       4.91652157
10
Lattice="5.848111233586473 1.85101286037328e-12 -8.108588723932432e-15 -8.83540796107078e-13 2.7914680752974075 8.190369733653187e-08 1.3588850936166847e-14 -2.89333318880539e-07 9.861150949300514" Properties=species:S:1:pos:R:3 unique_starting_index=72 config_type=initial n_minim_iter=4 stress="0.0006842852668693255 -1.8794549185181254e-16 -4.1125026035339675e-16 -1.8794549185181254e-16 0.0016461500397671675 1.3028880793351195e-10 -4.1125026035339675e-16 1.3028880793351195e-10 -0.002794409717094926" pbc="T T T"
Si       4.83979631       3.19140779       3.19903232
Si       4.83979631      -0.39994001       6.66211871
Si       1.91574070       1.79567380       1.73154330
Si       1.91574070       0.99579399       8.12960773
Si       1.33539342       0.29383991       3.74923774
Si       1.33539342       2.49762788       6.11191330
Si       4.25944904       1.68957402       1.18133780
Si       4.25944904       1.10189376       8.67981323
Si       0.55451364       0.00000000       0.00000000
Si       3.47856926       1.39573389       4.93057552
10
Lattice="5.826045681244123 1.844028994602926e-12 -8.025086391547347e-15 -8.728311996605564e-13 2.75763236656043 8.091093310834761e-08 1.3847138128897395e-14 -2.9290454740629085e-07 9.982866704971862" Properties=species:S:1:pos:R:3 unique_starting_index=72 config_type=initial n_minim_iter=5 stress="0.0005891287969536578 -1.4299390583799015e-16 -1.0972822354381798e-15 -1.4299390583799015e-16 0.0008976937937054041 -6.393287718160108e-13 -1.0972822354381798e-15 -6.393287718160108e-13 0.0009194690533043492" pbc="T T T"
Si       4.82099065       3.15785488       3.24641531
Si       4.82099065      -0.40022280       6.73645148
Si       1.90796781       1.77903874       1.74501819
Si       1.90796781       0.97859334       8.23784860
Si       1.33457370       0.29230537       3.80768673
Si       1.33457370       2.46532670       6.17518005
Si       4.24759654       1.67112163       1.18374668
Si       4.24759654       1.08651044       8.79912011
Si       0.54507286       0.00000000       0.00000000
Si       3.45809571       1.37881604       4.99143339
10
Lattice="5.817189607804278 1.8412258752323488e-12 -8.010926670631374e-15 -8.702322643929308e-13 2.749421196640955 8.067001142907267e-08 1.386504136100102e-14 -2.9321504008542913e-07 9.993449016004313" Properties=species:S:1:pos:R:3 unique_starting_index=72 config_type=initial n_minim_iter=6 stress="-0.0007449452020112281 4.635544006061368e-16 -5.598603935127459e-16 4.635544006061368e-16 -0.0018499623831132687 -4.983769161284822e-11 -5.598603935127459e-16 -4.983769161284822e-11 -0.00015139625560939683" pbc="T T T"
Si       4.81341923       3.15214170       3.24610708
Si       4.81341923      -0.40272080       6.74734202
Si       1.90482443       1.77743115       1.75061758
Si       1.90482443       0.97198976       8.24283152
Si       1.33404093       0.29138646       3.80298077
Si       1.33404093       2.45803445       6.19046832
Si       4.24263574       1.66609713       1.19374379
Si       4.24263574       1.08332377       8.79970531
Si       0.54173875       0.00000000       0.00000000
Si       3.45033355       1.37471045       4.99672455
10
Lattice="5.744213282222455 1.8181250278985394e-12 -7.8434629254247e-15 -8.614522084696968e-13 2.7216771978788956 7.985598236676292e-08 1.4239244840433745e-14 -2.9874648217020544e-07 10.18197339614342" Properties=species:S:1:pos:R:3 unique_starting_index=72 config_type=initial n_minim_iter=7 stress="-0.002625932619670467 1.185903234205012e-15 -5.016208087093184e-16 1.185903234205012e-15 -0.005877054357596567 -1.5818529130004134e-10 -5.016208087093184e-16 -1.5818529130004134e-10 -0.00048573251234211405" pbc="T T T"
Si       4.74478967       3.18102754       3.32723044
Si       4.74478967      -0.45935064       6.85474304
Si       1.87268303       1.82018898       1.76375641
Si       1.87268303       0.90148792       8.41821707
Si       1.35390486       0.29455929       3.88358484
Si       1.35390486       2.42711761       6.29838864
Si       4.22601150       1.65539796       1.20740192
Si       4.22601150       1.06627893       8.97457156
Si       0.47823483       0.00000000       0.00000000
Si       3.35034147       1.36083845       5.09098674
10
Lattice="5.718172591160588 1.8098810500085103e-12 -7.813046645622236e-15 -8.70270281312875e-13 2.7495345954202053 8.067333857575653e-08 1.4265296247476852e-14 -2.9949347936744555e-07 10.20743279009028" Properties=species:S:1:pos:R:3 unique_starting_index=72 config_type=initial n_minim_iter=8 stress="-0.003121795920933452 -3.839398297387516e-17 -5.702434555696251e-16 -3.839398297387516e-17 -0.0028770918448036567 -2.356355514515651e-11 -5.702434555696251e-16 -2.356355514515651e-11 -0.002074017569823701" pbc="T T T"
Si       4.71895912       3.25186614       3.34342970
Si       4.71895912      -0.50233184       6.86400317
Si       1.85987283       1.87709888       1.76028685
Si       1.85987283       0.87243541       8.44714602
Si       1.36769933       0.29997797       3.88811869
Si       1.36769933       2.44955632       6.31931418
Si       4.22678563       1.67474535       1.21559777
Si       4.22678563       1.07478895       8.99183510
Si       0.44484358       0.00000000       0.00000000
Si       3.30392988       1.37476715       5.10371644
10
Lattice="5.7391222833797535 1.8165066310735041e-12 -7.871691202444195e-15 -8.783237743740158e-13 2.774970908341843 8.141965841885381e-08 1.4164508537732087e-14 -2.9843541851772863e-07 10.17137161828957" Properties=species:S:1:pos:R:3 unique_starting_index=72 config_type=initial n_minim_iter=9 stress="0.0014754692909429094 2.8042571353557985e-16 -3.808598408331626e-16 2.8042571353557985e-16 0.0012921708979951939 2.8861948321598718e-11 -3.808598408331626e-16 2.8861948321598718e-11 0.0003084798002072974" pbc="T T T"
Si       4.73750904       3.28513570       3.33136597
Si       4.73750904      -0.51016509       6.84000573
Si       1.86794790       1.89765029       1.75432000
Si       1.86794790       0.87732032       8.41705170
Si       1.37027108       0.30186848       3.86744453
Si       1.37027108       2.47310213       6.30392717
Si       4.23983222       1.68935401       1.21824134
Si       4.23983222       1.08561660       8.95313036
Si       0.44882945       0.00000000       0.00000000
Si       3.31839059       1.38748530       5.08568585
10
Lattice="5.719132681241793 1.8101802315985401e-12 -7.835271034449569e-15 -8.844917504011467e-13 2.794459150407001 8.199145754476548e-08 1.4290246481570055e-14 -3.007619861647628e-07 10.250666439654152" Properties=species:S:1:pos:R:3 unique_starting_index=72 config_type=initial n_minim_iter=10 stress="0.0021266880860712004 -6.781580961028006e-16 -4.851138519397058e-16 -6.781580961028006e-16 0.005272449329969055 6.421893519478181e-11 -4.851138519397058e-16 6.421893519478181e-11 0.0030837044409988226" pbc="T T T"
Si       4.72275303       3.36311325       3.37863177
Si       4.72275303      -0.56865440       6.87203476
Si       1.86318669       1.96588372       1.74670161
Si       1.86318669       0.82857513       8.50396491
Si       1.37805197       0.30674191       3.88675001
Si       1.37805197       2.48771694       6.36391651
Si       4.23761831       1.70397157       1.23858326
Si       4.23761831       1.09048728       9.01208326
Si       0.41866911       0.00000000       0.00000000
Si       3.27823545       1.39722942       5.12533326
10
Lattice="5.720051915542465 1.8104609862990756e-12 -7.844283652536738e-15 -8.793400578621011e-13 2.778167291883335 8.151344253173658e-08 1.437555143611494e-14 -3.0282959553072367e-07 10.321135356672762" Properties=species:S:1:pos:R:3 unique_starting_index=72 config_type=initial n_minim_iter=11 stress="2.187640387551999e-05 -1.874205625380989e-15 -5.760082261300358e-16 -1.874205625380989e-15 0.0061099984636193766 6.400434590850964e-11 -5.760082261300358e-16 6.400434590850964e-11 0.003928560275286124" pbc="T T T"
Si       4.73466069       3.41343944       3.43932719
Si       4.73466069      -0.63527245       6.88180825
Si       1.87463474       2.02435585       1.72124065
Si       1.87463474       0.75381114       8.59989479
Si       1.37742994       0.30762867       3.89687768
Si       1.37742994       2.47053832       6.42425776
Si       4.23745589       1.69671239       1.26369006
Si       4.23745589       1.08145459       9.05744538
Si       0.39812629       0.00000000       0.00000000
Si       3.25815225       1.38908349       5.16056772
10
Lattice="5.743931584794417 1.8179958111603032e-12 -7.89962201592414e-15 -8.668332692014896e-13 2.7386166803793204 8.035299885773092e-08 1.4363202906462307e-14 -3.0338247987895317e-07 10.339978932005211" Properties=species:S:1:pos:R:3 unique_starting_index=72 config_type=initial n_minim_iter=12 stress="-0.000581248774778212 -4.247591160537343e-16 -5.096237391846171e-16 -4.247591160537343e-16 0.001595465542095366 -5.7130472335870557e-11 -5.096237391846171e-16 -5.7130472335870557e-11 0.003542582298707536" pbc="T T T"
Si       4.76262645       3.39872941       3.46451149
Si       4.76262645      -0.66011304       6.87546753
Si       1.89066066       2.02942112       1.70547814
Si       1.89066066       0.70919525       8.63450087
Si       1.37966641       0.30465354       3.89847409
Si       1.37966641       2.43396284       6.44150492
Si       4.25163221       1.67396196       1.27151544
Si       4.25163221       1.06465442       9.06846358
Si       0.39041655       0.00000000       0.00000000
Si       3.26238234       1.36930819       5.16998951
10
Lattice="5.814175800427828 1.840236007861754e-12 -8.079876786508221e-15 -8.531360615276912e-13 2.6953504518871494 7.908353630964709e-08 1.4088205344839603e-14 -3.006686222783155e-07 10.247484363272187" Properties=species:S:1:pos:R:3 unique_starting_index=72 config_type=initial n_minim_iter=13 stress="-0.0008710812849901041 1.1686863101534288e-15 -8.715083133341776e-16 1.1686863101534288e-15 -0.004188639728215242 -6.361327551979048e-11 -8.715083133341776e-16 -6.361327551979048e-11 -0.0020205641595367318" pbc="T T T"
Si       4.83842533       3.41471793       3.46257401
Si       4.83842533      -0.71936778       6.78491044
Si       1.93133743       2.06704276       1.66116834
Si       1.93133743       0.62830739       8.58631611
Si       1.39235430       0.30235294       3.85237326
Si       1.39235430       2.39299721       6.39511118
Si       4.29944220       1.65002824       1.27136897
Si       4.29944220       1.04532191       8.97611547
Si       0.36844932       0.00000000       0.00000000
Si       3.27553722       1.34767508       5.12374222
10
Lattice="5.9523469785932015 1.8839711922917745e-12 -8.376741701652253e-15 -8.462013889380779e-13 2.6734423177378464 7.844073576439289e-08 1.3662163132776692e-14 -2.957544362895755e-07 10.079997499860267" Properties=species:S:1:pos:R:3 unique_starting_index=72 config_type=initial n_minim_iter=14 stress="0.0009111346643781349 1.3901134548982312e-15 -6.872562270814036e-16 1.3901134548982312e-15 -0.004055884310148066 -1.207083396650848e-10 -6.872562270814036e-16 -1.207083396650848e-10 5.81318442234932e-05" pbc="T T T"
Si       4.99710013       3.51394932       3.44768569
Si       4.99710013      -0.84050730       6.63231189
Si       2.02092664       2.17722822       1.59231323
Si       2.02092664       0.49621380       8.48768435
Si       1.41748804       0.30747163       3.80543349
Si       1.41748804       2.36597039       6.27456409
Si       4.39366153       1.64419287       1.23456532
Si       4.39366153       1.02924915       8.84543226
Si       0.30573142       0.00000000       0.00000000
Si       3.28190491       1.33672101       5.03999879
10
Lattice="6.066842800895679 1.920211788877525e-12 -8.614738599547796e-15 -8.454246870769977e-13 2.67098880016655 7.836874777805137e-08 1.3241052316484784e-14 -2.900160859807791e-07 9.884421203815549" Properties=species:S:1:pos:R:3 unique_starting_index=72 config_type=initial n_minim_iter=15 stress="0.0003448070126467419 1.3021814733908594e-15 -7.377444482635868e-16 1.3021814733908594e-15 -0.004205506761165512 -1.8473368734609458e-11 -7.377444482635868e-16 -1.8473368734609458e-11 -0.0035758851703530333" pbc="T T T"
Si       5.12773251       3.57741883       3.40076096
Si       5.12773251      -0.90643032       6.48366032
Si       2.09431111       2.24192448       1.54144981
Si       2.09431111       0.42906403       8.34297147
Si       1.42271223       0.31017412       3.73851744
Si       1.42271223       2.36081439       6.14590384
Si       4.45613363       1.64566859       1.20369322
Si       4.45613363       1.02531992       8.68072806
Si       0.28667357       0.00000000       0.00000000
Si       3.32009497       1.33549426       4.94221064
10
Lattice="6.218276835845736 1.9681416977828493e-12 -8.913179886299626e-15 -8.448458910726024e-13 2.6691568611967527 7.831499736223112e-08 1.284725462737255e-14 -2.852334278618843e-07 9.721417115970018" Properties=species:S:1:pos:R:3 unique_starting_index=72 config_type=initial n_minim_iter=16 stress="-1.9645760353190938e-05 8.936043172405539e-16 -4.9811266274685325e-16 8.936043172405539e-16 -0.0029703446209711744 -6.789160926352151e-11 -4.9811266274685325e-16 -6.789160926352151e-11 -0.0006564301473986114" pbc="T T T"
Si       5.31270786       3.74947020       3.40331219
Si       5.31270786      -1.08031362       6.31810500
Si       2.20356944       2.41489182       1.45739655
Si       2.20356944       0.25426475       8.26402065
Si       1.43456141       0.31778018       3.66565615
Si       1.43456141       2.35137640       6.05576105
Si       4.54369982       1.65235868       1.19505247
Si       4.54369982       1.01679789       8.52636473
Si       0.22719055       0.00000000       0.00000000
Si       3.33632897       1.33457829       4.86070860
10
Lattice="6.277302925815867 1.9868188669105254e-12 -9.062768849684e-15 -8.488393463432598e-13 2.681765235650221 7.868493621126922e-08 1.2626474168284279e-14 -2.8316746441320514e-07 9.65100428696646" Properties=species:S:1:pos:R:3 unique_starting_index=72 config_type=initial n_minim_iter=17 stress="0.0016381439372404462 -2.925760938091725e-16 -6.724262606919621e-16 -2.925760938091725e-16 0.0013442167483459077 3.995862057732654e-13 -6.724262606919621e-16 3.995862057732654e-13 0.0013305993948250262" pbc="T T T"
Si       5.38605325       3.83703413       3.40287172
Si       5.38605325      -1.15526918       6.24813264
Si       2.24740179       2.49615157       1.42263060
Si       2.24740179       0.18561338       8.22837376
Si       1.43217652       0.32172517       3.62675586
Si       1.43217652       2.36003978       6.02424851
Si       4.57082798       1.66260786       1.19874634
Si       4.57082798       1.01915709       8.45225802
Si       0.21552105       0.00000000       0.00000000
Si       3.35417251       1.34088248       4.82550218
10
Lattice="6.263823648191423 1.982551689799943e-12 -9.066250968737195e-15 -8.50944660210792e-13 2.688415897716799 7.888007145906697e-08 1.2617333015376376e-14 -2.8372249427092724e-07 9.66992099259959" Properties=species:S:1:pos:R:3 unique_starting_index=72 config_type=initial n_minim_iter=18 stress="0.0006407148151280398 -1.3666597571398397e-15 -5.207286161426591e-16 -1.3666597571398397e-15 0.004066575226388621 -1.0716669131314965e-11 -5.207286161426591e-16 -1.0716669131314965e-11 0.004431832112792199" pbc="T T T"
Si       5.37715706       3.86273440       3.41883927
Si       5.37715706      -1.17431878       6.25108181
Si       2.24524524       2.51852651       1.41612142
Si       2.24524524       0.16988911       8.25379965
Si       1.41207229       0.32224415       3.61407994
Si       1.41207229       2.36617147       6.05584113
Si       4.54398411       1.66645217       1.22088061
Si       4.54398411       1.02196345       8.44904046
Si       0.24377749       0.00000000       0.00000000
Si       3.37568931       1.34420781       4.83496054
10
Lattice="6.309708149803942 1.9970771653579815e-12 -9.207362285533933e-15 -8.456140069184868e-13 2.6715768375972906 7.838600121977035e-08 1.240753902198563e-14 -2.822352163370239e-07 9.619231108483566" Properties=species:S:1:pos:R:3 unique_starting_index=72 config_type=initial n_minim_iter=19 stress="-0.00023749201337028273 -9.800421437307708e-16 -7.270265283894716e-16 -9.800421437307708e-16 0.002103523842156008 -1.5302477737982266e-11 -7.270265283894716e-16 -1.5302477737982266e-11 0.0026250606654882377" pbc="T T T"
Si       5.43118931       3.90880783       3.42809383
Si       5.43118931      -1.23723127       6.19113735
Si       2.27633523       2.57301947       1.38152191
Si       2.27633523       0.09855708       8.23770928
Si       1.41533097       0.32331699       3.58474147
Si       1.41533097       2.34825957       6.03448971
Si       4.57018505       1.65910548       1.22487414
Si       4.57018505       1.01247108       8.39435705
Si       0.23044790       0.00000000       0.00000000
Si       3.38530198       1.33578828       4.80961559
10
Lattice="6.279825512403745 1.9876198438256293e-12 -9.197698444830947e-15 -8.438130114738381e-13 2.665888419896896 7.821909891974012e-08 1.2387892546722361e-14 -2.82851297049332e-07 9.640228568976895" Properties=species:S:1:pos:R:3 unique_starting_index=72 config_type=initial n_minim_iter=20 stress="-0.0018702831418694339 -1.118308590689302e-15 -1.0678903274220264e-15 -1.118308590689302e-15 0.0007103537464914948 8.59415709343503e-11 -1.0678903274220264e-15 8.59415709343503e-11 -0.0022187430592505064" pbc="T T T"
Si       5.38909886       3.89164702       3.43196262
Si       5.38909886      -1.22575888       6.20826602
Si       2.24918610       2.55870287       1.38815185
Si       2.24918610       0.10718527       8.25207680
Si       1.41930382       0.32276473       3.59049929
Si       1.41930382       2.34312341       6.04972935
Si       4.55921658       1.65570900       1.22961505
Si       4.55921658       1.01017913       8.41061360
Si       0.24074177       0.00000000       0.00000000
Si       3.38065453       1.33294407       4.82011432
10
Lattice="6.257584761512924 1.9805786938003985e-12 -9.17016439595473e-15 -8.394791292701433e-13 2.652193372420185 7.781727629345489e-08 1.2481048463185329e-14 -2.8477461685112697e-07 9.705779771131072" Properties=species:S:1:pos:R:3 unique_starting_index=72 config_type=initial n_minim_iter=21 stress="-0.0014280294270790366 -9.374120231197208e-17 -9.847839867172732e-16 -9.374120231197208e-17 -0.0019479533619921401 -3.3778086358045476e-11 -9.847839867172732e-16 -3.3778086358045476e-11 -0.0007967297333073911" pbc="T T T"
Si       5.35302803       3.86026049       3.45102732
Si       5.35302803      -1.20806740       6.25475253
Si       2.22423565       2.53416386       1.40186276
Si       2.22423565       0.11802922       8.30391709
Si       1.42513998       0.32207477       3.62243704
Si       1.42513998       2.33011832       6.08334281
Si       4.55393236       1.64817153       1.23045290
Si       4.55393236       1.00402156       8.47532695
Si       0.25213296       0.00000000       0.00000000
Si       3.38092534       1.32609654       4.85288992
