12
Lattice="7.375874346574029 0.6666816790845077 -1.6036564808580596 6.55450401236305 2.1724561811214462 -1.8727763231946837 0.9560617680938143 -0.22579070801298945 1.4366719351670336" Properties=species:S:1:pos:R:3 unique_starting_index=78 config_type=initial n_minim_iter=1 energy=-4176688.423846259 free_energy=-4176688.423846259 pbc="T T T"
Si       0.97288838       1.22603416       0.69294949
Si       8.36543358       0.50712625       0.15350875
Si      14.18534627       2.51939543      -3.43027323
Si       5.08511456       1.39594775      -0.70964112
Si       8.59273555       1.93862683      -1.53244053
Si       8.81866469       2.11640728      -1.17211654
Si       7.99003377       0.49458889      -1.89062304
Si       9.12116709       1.79094688      -0.80942754
Si       7.28625621       0.19679912      -1.29500513
Si       8.45210095       0.76557120      -2.20788592
Si       4.82506843       1.57963962      -0.52486622
Si       8.00545898       1.68459752      -0.44824620
12
Lattice="7.32300935934725 0.6639438536810651 -1.5861637408604918 6.507760851003347 2.1619396169260336 -1.8519310356412362 0.9491887365017014 -0.22404477287177035 1.4212459722324065" Properties=species:S:1:pos:R:3 unique_starting_index=78 config_type=initial n_minim_iter=2 stress="-116238.91138678872 136058.3712309028 -212697.2058763368 136058.3712309028 -314879.35459011316 -62991.77356523675 -212697.2058763368 -62991.77356523675 -134204.38122255352" pbc="T T T"
Si       0.96810563       1.22338086       0.68891918
Si       8.30553953       0.50485601       0.15178969
Si      14.08394839       2.50662712      -3.39074462
Si       5.04928702       1.38883340      -0.70238966
Si       8.52972822       1.92976644      -1.51508759
Si       8.75381015       2.10778192      -1.15844687
Si       7.93390618       0.49366827      -1.87071473
Si       9.05450350       1.78288042      -0.79942785
Si       7.23661126       0.19803769      -1.28367916
Si       8.39056789       0.75635322      -2.18210693
Si       4.79058095       1.57294721      -0.51801601
Si       7.94776504       1.67886898      -0.44647012
12
Lattice="7.205028706145482 0.5812658346023585 -1.420335930481052 6.377754282871979 2.1043726472471675 -1.685943815937903 0.9662345683878802 -0.228365353198236 1.407986377249622" Properties=species:S:1:pos:R:3 unique_starting_index=78 config_type=initial n_minim_iter=3 stress="-35716.102295726276 -380182.96565861924 -6708.751482730572 -380182.96565861924 586120.1907717293 36129.25216797376 -6708.751482730572 36129.25216797376 -197248.293133727" pbc="T T T"
Si       0.96899796       1.25140517       0.72003914
Si       8.20775282       0.41381152       0.29695993
Si      13.83782068       2.35300378      -3.04879651
Si       4.96549986       1.34028473      -0.59470760
Si       8.37450536       1.84791201      -1.32139930
Si       8.60126288       2.03530769      -0.96683261
Si       7.81376871       0.40820301      -1.69168879
Si       8.90925838       1.69805542      -0.60929281
Si       7.14807001       0.12151666      -1.14592939
Si       8.24535466       0.62192024      -1.97165761
Si       4.70931306       1.53993343      -0.40853149
Si       7.82815454       1.61977851      -0.30935551
12
Lattice="7.191963154613451 0.6191055994798796 -1.3393856274162397 6.371304614473169 2.1220309754031885 -1.6115916517576272 0.981305696862279 -0.21656409037014576 1.4228067262050035" Properties=species:S:1:pos:R:3 unique_starting_index=78 config_type=initial n_minim_iter=4 stress="-10104.310583452796 -81727.05063505663 254760.8722598702 -81727.05063505663 85084.10975699486 66478.52350589185 254760.8722598702 66478.52350589185 271150.9056875495" pbc="T T T"
Si       0.99284043       1.25591419       0.74932477
Si       8.21603465       0.45956920       0.39101577
Si      13.81738479       2.40921916      -2.88694737
Si       4.96623438       1.35435755      -0.53849396
Si       8.36269821       1.87925770      -1.22309807
Si       8.59819632       2.07084655      -0.86541577
Si       7.80407870       0.45751168      -1.60377380
Si       8.90563220       1.73875557      -0.50310093
Si       7.14589320       0.16900307      -1.07483279
Si       8.22263334       0.64816136      -1.87023978
Si       4.71350472       1.55826097      -0.34727285
Si       7.83105451       1.66226627      -0.23200212
12
Lattice="7.358737621271045 0.7261075131814007 -1.3150429188731587 6.541659848825337 2.220777533475714 -1.5851777077300846 0.9993201813370546 -0.20452186658431368 1.4044996658871005" Properties=species:S:1:pos:R:3 unique_starting_index=78 config_type=initial n_minim_iter=5 stress="118360.2737923162 184161.02575644822 -49069.65490647524 184161.02575644822 -67946.00932455955 -52589.12863395559 -49069.65490647524 -52589.12863395559 305992.22869591037" pbc="T T T"
Si       1.05504098       1.27340059       0.78069763
Si       8.42291223       0.56269089       0.37311058
Si      14.15801076       2.61294345      -2.82866779
Si       5.08644203       1.41175699      -0.53664235
Si       8.53942068       1.98320243      -1.19652351
Si       8.80631603       2.19097387      -0.84461103
Si       8.02375382       0.60401100      -1.56050281
Si       9.09534774       1.86869756      -0.49305072
Si       7.34742112       0.29032379      -1.07656260
Si       8.39209366       0.75499600      -1.80017997
Si       4.83510442       1.64191106      -0.32355879
Si       8.00336612       1.81048417      -0.29050773
12
Lattice="7.385504546214971 0.7274539235112584 -1.1835771752089534 6.561774208179806 2.2109307641089324 -1.4544556194361042 1.0262445727317684 -0.19404702761171028 1.3991458634439935" Properties=species:S:1:pos:R:3 unique_starting_index=78 config_type=initial n_minim_iter=6 stress="100452.02084563753 170853.55716083976 241474.45254952184 170853.55716083976 -329876.0669328436 -130442.01018348937 241474.45254952184 -130442.01018348937 450143.2060912059" pbc="T T T"
Si       1.06968973       1.26939489       0.80762588
Si       8.49680293       0.56632801       0.48011447
Si      14.20924141       2.61549403      -2.57403872
Si       5.10762230       1.39616040      -0.45247979
Si       8.54980270       1.95954101      -1.03652342
Si       8.84647605       2.17619145      -0.67969562
Si       8.08213477       0.62275347      -1.40333886
Si       9.12066836       1.86503307      -0.34115972
Si       7.41010920       0.30713565      -0.96668534
Si       8.40964831       0.76073422      -1.62522726
Si       4.85921102       1.64873654      -0.22828108
Si       8.04977999       1.82622619      -0.18691053
12
Lattice="7.465436259824654 0.7962577499898881 -1.154457287260446 6.651728570480354 2.2718727752168446 -1.401283386129818 1.033967529037781 -0.16206653307567748 1.3839083411218067" Properties=species:S:1:pos:R:3 unique_starting_index=78 config_type=initial n_minim_iter=7 stress="-140105.13681872722 397832.09295083245 59667.01394772316 397832.09295083245 45094.10456758121 549151.9697277298 59667.01394772316 549151.9697277298 597230.6453703486" pbc="T T T"
Si       1.09509751       1.30394144       0.83283304
Si       8.60040463       0.66570725       0.47073673
Si      14.38654269       2.75440617      -2.50536233
Si       5.16565290       1.43718584      -0.42727234
Si       8.63049978       2.02985459      -0.98313548
Si       8.94982305       2.26703663      -0.62166242
Si       8.17520634       0.70430155      -1.36776689
Si       9.20123747       1.96271502      -0.30009225
Si       7.51551143       0.39250850      -0.96445271
Si       8.49733469       0.83333617      -1.57373929
Si       4.92199868       1.71688532      -0.18655727
Si       8.16694645       1.93354734      -0.16000355
12
Lattice="7.733922444409935 0.9094588326419247 -1.0900421291101419 6.913780777049782 2.3691193770977836 -1.3310603088913178 1.070478045729333 -0.14294125085762674 1.3579516506168208" Properties=species:S:1:pos:R:3 unique_starting_index=78 config_type=initial n_minim_iter=8 stress="139677.33470284037 389005.90288377233 -22693.131924490586 389005.90288377233 -5835.686603299196 296114.0778918123 -22693.131924490586 296114.0778918123 390574.20375699457" pbc="T T T"
Si       1.15883582       1.33610265       0.84856568
Si       8.93728864       0.78784146       0.45949368
Si      14.94507156       2.98076352      -2.38635428
Si       5.34589469       1.48231174      -0.39575064
Si       8.90616681       2.12363720      -0.90111458
Si       9.27457517       2.38854748      -0.53669486
Si       8.47298968       0.83967699      -1.28571536
Si       9.48729320       2.08834936      -0.24021230
Si       7.84174363       0.53890474      -0.94189774
Si       8.79808822       0.95613453      -1.46883088
Si       5.10949940       1.81094949      -0.13447144
Si       8.52121880       2.08072120      -0.12130303
12
Lattice="7.8410255097653625 0.9666539209361559 -1.0659443533001205 7.021764863857824 2.416997822600095 -1.3015869222870609 1.0847790199350829 -0.12910209245083493 1.352093087557618" Properties=species:S:1:pos:R:3 unique_starting_index=78 config_type=initial n_minim_iter=9 stress="451520.03947240714 241696.59158248216 10898.702235308745 241696.59158248216 693572.148573753 390539.11693763913 10898.702235308745 390539.11693763913 467561.9893619227" pbc="T T T"
Si       1.19050228       1.34966230       0.87744900
Si       9.11604211       0.86691645       0.42649041
Si      15.22630522       3.10719282      -2.33451069
Si       5.39341937       1.47897898      -0.37984858
Si       8.97672058       2.15059058      -0.85082756
Si       9.37931730       2.45702151      -0.48499802
Si       8.60543250       0.89637280      -1.25043362
Si       9.55444897       2.15583963      -0.19986723
Si       8.00537531       0.63931288      -0.94913964
Si       8.91493560       1.00751784      -1.44477923
Si       5.18240941       1.87569728      -0.10109542
Si       8.66664578       2.15895624      -0.11548212
12
Lattice="7.863312655182727 0.9568411393916455 -1.0854129304903644 7.041252184285477 2.402092313510349 -1.3186883650705488 1.0841953287741073 -0.12808469104236644 1.3526040985810937" Properties=species:S:1:pos:R:3 unique_starting_index=78 config_type=initial n_minim_iter=10 stress="423334.32127978595 122619.62641420221 -30096.50940972085 122619.62641420221 810058.3039030468 389911.0077347024 -30096.50940972085 389911.0077347024 457838.7574711061" pbc="T T T"
Si       1.19258671       1.34922703       0.88307608
Si       9.17032581       0.86488375       0.39102673
Si      15.30425561       3.08926217      -2.37878965
Si       5.38919068       1.44762147      -0.39161734
Si       8.96426801       2.11604865      -0.86307626
Si       9.38677570       2.43748768      -0.49724695
Si       8.63481866       0.88008322      -1.27165669
Si       9.54188570       2.13849292      -0.21502495
Si       8.05574865       0.65111719      -0.97972607
Si       8.94025715       0.98891864      -1.45796009
Si       5.19021810       1.87826931      -0.10447454
Si       8.69624300       2.15579521      -0.14481874
12
Lattice="7.9899952999791255 1.0145751180506792 -1.0792316219833546 7.165862021354848 2.456738309827803 -1.3116121919054107 1.0973564219437184 -0.12272275699234737 1.3424324206537144" Properties=species:S:1:pos:R:3 unique_starting_index=78 config_type=initial n_minim_iter=11 stress="591537.924063141 77525.39158846323 -28643.853583346176 77525.39158846323 984004.1742026841 291079.3130869049 -28643.853583346176 291079.3130869049 310130.7135790571" pbc="T T T"
Si       1.19966592       1.35930448       0.87297335
Si       9.35109867       0.94070677       0.37821823
Si      15.59768979       3.21931846      -2.37601646
Si       5.46109877       1.46271107      -0.38908497
Si       9.09754865       2.17418271      -0.84557656
Si       9.53388364       2.51126391      -0.48395809
Si       8.78686983       0.93457821      -1.26931262
Si       9.66266101       2.20785603      -0.20902600
Si       8.19796542       0.70747819      -0.98880793
Si       9.08230412       1.03147867      -1.43943515
Si       5.27625917       1.93280319      -0.09855822
Si       8.84978042       2.24160340      -0.15863271
12
Lattice="8.062158771785926 1.024335839027286 -1.0747795932301207 7.2329104022181205 2.461350699436324 -1.304283578766884 1.10619551756357 -0.11818560357320804 1.3393369538365654" Properties=species:S:1:pos:R:3 unique_starting_index=78 config_type=initial n_minim_iter=12 stress="691559.3517057091 78980.96670007167 8691.59580866171 78980.96670007167 930887.5273045012 371712.68229604966 8691.59580866171 371712.68229604966 432817.57181926706" pbc="T T T"
Si       1.20847112       1.37024705       0.86754258
Si       9.46168239       0.95799463       0.36502347
Si      15.76755751       3.26508696      -2.36934086
Si       5.49119934       1.44010890      -0.38355853
Si       9.19062562       2.18749238      -0.82304934
Si       9.59912963       2.50847687      -0.47854924
Si       8.86957601       0.91703118      -1.26471632
Si       9.71117782       2.21707064      -0.19183779
Si       8.30035934       0.70799813      -0.98768069
Si       9.15031820       1.02988201      -1.42786551
Si       5.31888712       1.95488458      -0.08608506
Si       8.94002724       2.28228280      -0.17223598
12
Lattice="7.944448793060237 1.069110408844746 -1.1434174021794286 7.136200308399602 2.516199269936393 -1.385995897532742 1.0800682697264297 -0.13084854352530778 1.3518734659347846" Properties=species:S:1:pos:R:3 unique_starting_index=78 config_type=initial n_minim_iter=13 stress="583793.179716217 -102386.73977940834 -77467.01702030035 -102386.73977940834 1131522.528566815 214584.77611930692 -77467.01702030035 214584.77611930692 508995.83556281414" pbc="T T T"
Si       1.15498095       1.37557812       0.85792671
Si       9.35716224       0.98113077       0.28438724
Si      15.59361099       3.39975169      -2.54196842
Si       5.37271347       1.41726354      -0.42895971
Si       9.08337112       2.26363764      -0.89101761
Si       9.42567947       2.54838523      -0.58014206
Si       8.73555280       0.95330347      -1.32558842
Si       9.49372676       2.25039436      -0.23766273
Si       8.24810216       0.72766791      -1.04555907
Si       8.99161321       1.05293249      -1.50670652
Si       5.23250955       2.01997998      -0.11757477
Si       8.84225284       2.39105739      -0.27637564
12
Lattice="7.885844310427683 1.1013948712394208 -1.1178087691032699 7.087679273724522 2.552185025822936 -1.3685033934137085 1.0778558945435164 -0.13297163779627003 1.3573573106123684" Properties=species:S:1:pos:R:3 unique_starting_index=78 config_type=initial n_minim_iter=14 stress="675089.666315824 -168970.28427198253 43298.56614491023 -168970.28427198253 1335592.8377228654 115162.95089274333 43298.56614491023 115162.95089274333 618134.4988614814" pbc="T T T"
Si       1.15293358       1.37269201       0.85832106
Si       9.31551881       1.00419719       0.31150940
Si      15.50961354       3.48559468      -2.50925004
Si       5.31766529       1.41481130      -0.41053490
Si       9.03297380       2.31679527      -0.86338339
Si       9.35591254       2.59234292      -0.55415675
Si       8.65451351       0.98075788      -1.28959345
Si       9.39606344       2.27278343      -0.19622166
Si       8.21275050       0.74696986      -1.01644126
Si       8.91322226       1.08520703      -1.47630486
Si       5.19787313       2.05961342      -0.09688430
Si       8.79672713       2.45912641      -0.26782557
12
Lattice="7.918544773183699 1.063355233540499 -1.1190354465444339 7.110953365447684 2.505151580599058 -1.364564096463659 1.082680473457403 -0.13011435622577514 1.3569832025639477" Properties=species:S:1:pos:R:3 unique_starting_index=78 config_type=initial n_minim_iter=15 stress="779491.4392202485 -319050.85662857443 89864.64793873327 -319050.85662857443 1360516.2867379098 42868.18453381065 89864.64793873327 42868.18453381065 677191.5107342317" pbc="T T T"
Si       1.13574334       1.35650792       0.86214130
Si       9.37366562       0.95592248       0.31357945
Si      15.59493738       3.40511506      -2.51546226
Si       5.30927537       1.35411908      -0.40282912
Si       9.07971925       2.28502146      -0.86326945
Si       9.38081707       2.54009193      -0.54977583
Si       8.67043913       0.92786665      -1.27416283
Si       9.39111520       2.20537036      -0.16911078
Si       8.27499176       0.70394713      -1.02724537
Si       8.96579805       1.04332559      -1.48803526
Si       5.21251939       2.04797425      -0.08471234
Si       8.84104381       2.45628271      -0.29739220
12
Lattice="7.929685604111722 1.0539938585092001 -1.115647697127338 7.1192417526192475 2.4916816188040465 -1.3609392687247142 1.0852646384963047 -0.1294662221394473 1.3581433370681901" Properties=species:S:1:pos:R:3 unique_starting_index=78 config_type=initial n_minim_iter=16 stress="897705.8345387379 -389447.3558049114 207849.78102701053 -389447.3558049114 1361508.468450703 -54745.93304802792 207849.78102701053 -54745.93304802792 766279.0728147468" pbc="T T T"
Si       1.13340882       1.34287551       0.85944835
Si       9.39760866       0.93758054       0.32279117
Si      15.62247588       3.38228148      -2.51247038
Si       5.29505397       1.32463393      -0.39345637
Si       9.09769799       2.28277110      -0.85633434
Si       9.38352461       2.52447251      -0.54304405
Si       8.67326566       0.91545453      -1.27583350
Si       9.38111376       2.18555271      -0.13516463
Si       8.30621137       0.68942918      -1.03029420
Si       8.99107792       1.03836093      -1.49033860
Si       5.21964178       2.05274664      -0.07849921
Si       8.86416314       2.46804204      -0.31300120
12
Lattice="7.898818495884104 1.0160244508588232 -1.1898426041897023 7.087509099269742 2.4450855129952505 -1.4353104582212177 1.0704998786084021 -0.13530175959912538 1.3673335869216163" Properties=species:S:1:pos:R:3 unique_starting_index=78 config_type=initial n_minim_iter=17 stress="992496.7461992041 -644705.217421412 225712.63455316407 -644705.217421412 1539600.8585219244 -366764.98773675115 225712.63455316407 -366764.98773675115 683814.734918495" pbc="T T T"
Si       1.11936522       1.32470273       0.84303148
Si       9.34568939       0.88292483       0.26274438
Si      15.56320049       3.30531853      -2.66826218
Si       5.21830811       1.25033687      -0.41802315
Si       9.06209744       2.24790423      -0.92971232
Si       9.32699347       2.48881673      -0.61281585
Si       8.64544880       0.87601282      -1.35852619
Si       9.27602263       2.08985656      -0.16925028
Si       8.31063606       0.62874409      -1.12006639
Si       8.98730901       1.00741977      -1.58513408
Si       5.19435478       2.04536900      -0.12420120
Si       8.84323192       2.44024798      -0.43150523
12
Lattice="7.919525638163969 0.9848381337827555 -1.2215193286182702 7.102537635827083 2.4050521389578043 -1.4622105329214694 1.0679212683428816 -0.13440187332638803 1.3674898583540382" Properties=species:S:1:pos:R:3 unique_starting_index=78 config_type=initial n_minim_iter=18 stress="1016665.1777577515 -713217.4855447309 261247.04434260103 -713217.4855447309 1601994.8924556025 -479651.98487257096 261247.04434260103 -479651.98487257096 605299.0487686084" pbc="T T T"
Si       1.11630256       1.31364050       0.84181083
Si       9.35317824       0.85174524       0.22911557
Si      15.60919900       3.23745636      -2.74462317
Si       5.19841596       1.20371103      -0.42079666
Si       9.09013392       2.21126375      -0.95750582
Si       9.33859497       2.45645411      -0.64097612
Si       8.66749684       0.84508439      -1.39145321
Si       9.27764231       2.03640488      -0.17492841
Si       8.35435151       0.58741474      -1.16038155
Si       9.02460787       0.97613047      -1.62184900
Si       5.20338929       2.03157229      -0.14473504
Si       8.86553539       2.40176306      -0.48684390
12
Lattice="7.975236445939256 0.8498582694593054 -1.2939997351580637 7.132374776878555 2.2463277770674694 -1.5204537313475444 1.0657904004764276 -0.13432102159957635 1.370437673049914" Properties=species:S:1:pos:R:3 unique_starting_index=78 config_type=initial n_minim_iter=19 stress="1078588.6574735495 -980466.9653334239 256399.27727249265 -980466.9653334239 1620027.433048582 -706618.2152930606 256399.27727249265 -706618.2152930606 413052.08204259345" pbc="T T T"
Si       1.09671813       1.26111640       0.85059916
Si       9.39747932       0.70842652       0.15534110
Si      15.70717389       2.94585819      -2.90279345
Si       5.16220581       1.06435431      -0.42717907
Si       9.17371729       2.04327128      -1.02394719
Si       9.36184597       2.29880918      -0.70212547
Si       8.73862247       0.70753722      -1.48248827
Si       9.30182446       1.83523602      -0.21545708
Si       8.45258062       0.46109113      -1.25498503
Si       9.10061544       0.82425352      -1.70207576
Si       5.21313873       1.94307473      -0.18498551
Si       8.91021051       2.24434342      -0.57472724
12
Lattice="7.974867878282078 0.8227820053486119 -1.3270721850630414 7.128872167303688 2.212880694540012 -1.550904698526233 1.06075726094013 -0.13514523118985974 1.372981718507527" Properties=species:S:1:pos:R:3 unique_starting_index=78 config_type=initial n_minim_iter=20 stress="1002513.7839044275 -972562.4192047629 235646.94678807302 -972562.4192047629 1545970.3448139096 -794224.5826277648 235646.94678807302 -794224.5826277648 293019.60801976407" pbc="T T T"
Si       1.09029375       1.24521536       0.84945864
Si       9.38943499       0.67490546       0.12397142
Si      15.70198349       2.88882875      -2.98189528
Si       5.12773608       1.02476560      -0.42925018
Si       9.18466590       2.01258593      -1.05694619
Si       9.34281753       2.27092867      -0.73365869
Si       8.74509828       0.67746793      -1.51739179
Si       9.29331398       1.78478165      -0.23445722
Si       8.46735336       0.44077331      -1.30227460
Si       9.10798961       0.79398341      -1.73710463
Si       5.20653234       1.92964671      -0.20695419
Si       8.90590390       2.21458357      -0.61648252
12
Lattice="7.966794703859622 0.762464858816326 -1.3902373327467967 7.1138026331090165 2.141273573572137 -1.60904204184909 1.0506091050645296 -0.13770960414405195 1.378148569509384" Properties=species:S:1:pos:R:3 unique_starting_index=78 config_type=initial n_minim_iter=21 stress="929118.3332396057 -1041683.6663275309 172197.04998902226 -1041683.6663275309 1425985.4541327565 -844214.6615622782 172197.04998902226 -844214.6615622782 235734.3069298729" pbc="T T T"
Si       1.07470531       1.21668217       0.85007352
Si       9.37375108       0.60043075       0.06037111
Si      15.67718495       2.77866182      -3.12321296
Si       5.05228369       0.94416841      -0.43165109
Si       9.18530279       1.95433734      -1.11890313
Si       9.31616563       2.18923983      -0.79364092
Si       8.73861684       0.62072913      -1.58874449
Si       9.27603034       1.67789978      -0.27272792
Si       8.48271204       0.39108031      -1.39526711
Si       9.11519655       0.71942812      -1.80532488
Si       5.18734723       1.89749826      -0.24754759
Si       8.88211412       2.13789557      -0.69674839
