22
Lattice="5.384698892092013 -1.398115931147714 0.6094540118366051 -3.4186923489060836 7.941421804504076 -3.448018354831973 1.7585458237323577 -6.537828753477832 14.922520825661051" Properties=species:S:1:pos:R:3 unique_starting_index=51 config_type=initial n_minim_iter=1 energy=-3580.048753793862 free_energy=-3580.048753793862 pbc="T T T"
Si       1.89041452       4.63291469       1.48890739
Si       2.22578711      -0.22246804       8.69209985
Si      -0.48579914       5.67188966      -1.92072952
Si      -1.00226689       3.46185117       1.83940595
Si       1.57214640      -0.46280616       6.45426523
Si       4.63843249      -1.82994820       6.67311940
Si      -0.53779901       0.45409852       0.74656767
Si      -0.08826099       1.90953533      -1.09226677
Si       1.94709792      -2.83571547       6.86092547
Si       4.68391380      -1.72515237      12.31741509
Si       0.22724542       0.52975970       9.68240213
Si       3.62912277      -0.19036501       5.24705253
Si      -0.09538341       1.58554190       2.99535394
Si       4.78761296      -5.46747259      13.90748347
Si       3.72171269      -3.94517392      12.47445127
Si       1.90732931       2.88114655       3.05484587
Si       1.29996893      -0.30632956       2.21857253
Si       4.42443462       0.72065022       8.95012345
Si       3.43553957      -2.47693735       8.70314880
Si       2.30447720      -1.63175426       3.89300350
Si       2.53051485       1.40945342       1.19387782
Si       3.61478256      -3.76765417       3.33684968
22
Lattice="5.366573797272244 -1.3922244045283199 0.612542432762744 -3.408015772365154 7.911839434841139 -3.4492447693993884 1.7606046746697996 -6.515884878540465 14.914791304688462" Properties=species:S:1:pos:R:3 unique_starting_index=51 config_type=initial n_minim_iter=2 stress="-0.0015507058053901407 -0.0003261055875167471 -0.0002420118173036839 -0.0003261055875167471 -0.001150209262669424 0.00024118725688889695 -0.0002420118173036839 0.00024118725688889695 -0.002287950019157571" pbc="T T T"
Si       1.88536589       4.61520980       1.48796947
Si       2.22405067      -0.22404013       8.68741910
Si      -0.48408550       5.65132034      -1.92072728
Si      -0.99667622       3.44895584       1.83708417
Si       1.57058120      -0.46141454       6.45134442
Si       4.62626116      -1.82340737       6.67110572
Si      -0.53496365       0.45204024       0.74500449
Si      -0.08918737       1.90335970      -1.09186101
Si       1.94369906      -2.82589636       6.85808638
Si       4.67460809      -1.72084136      12.31199993
Si       0.23268863       0.52615503       9.67654363
Si       3.61975986      -0.19038051       5.24593978
Si      -0.09355279       1.57948409       2.99354037
Si       4.78031200      -5.44922537      13.90233974
Si       3.71578396      -3.93155420      12.46883554
Si       1.90251989       2.86982569       3.05334635
Si       1.29723598      -0.30442993       2.21746754
Si       4.41489151       0.71679913       8.94638745
Si       3.42844882      -2.46936597       8.69925623
Si       2.29859648      -1.62689571       3.89272548
Si       2.52189366       1.40353991       1.19525763
Si       3.60490002      -3.75350304       3.33717911
22
Lattice="5.356670044035647 -1.3774550331080302 0.6338870724707681 -3.3970027182354467 7.87676341574268 -3.499767592639112 1.7847008326666232 -6.507546632372702 15.056635124533834" Properties=species:S:1:pos:R:3 unique_starting_index=51 config_type=initial n_minim_iter=3 stress="-0.0011786876102857042 -0.0001223103531912607 0.0014354245198017984 -0.0001223103531912607 -0.0012646549497926653 -0.0003234840997869313 0.0014354245198017984 -0.0003234840997869313 0.003123105892434214" pbc="T T T"
Si       1.89335051       4.59463387       1.49702571
Si       2.24571609      -0.23812257       8.76642210
Si      -0.47605872       5.63080092      -1.94691192
Si      -0.98078225       3.43227743       1.84563156
Si       1.58371334      -0.46269195       6.51314785
Si       4.63168849      -1.81611613       6.73939254
Si      -0.52855812       0.44748168       0.74565150
Si      -0.09272268       1.90052118      -1.10382279
Si       1.95030357      -2.81972029       6.92659692
Si       4.69266219      -1.72654334      12.43005258
Si       0.25994137       0.50987690       9.76211134
Si       3.62608166      -0.19213720       5.30129688
Si      -0.08552456       1.57019950       3.01964580
Si       4.80586106      -5.43988238      14.04345468
Si       3.73384861      -3.92363764      12.58957465
Si       1.90943896       2.85471101       3.08004602
Si       1.30210117      -0.29947035       2.23821763
Si       4.43224758       0.70728367       9.03130033
Si       3.43938290      -2.46958142       8.78331615
Si       2.30129809      -1.62632550       3.93781835
Si       2.51855562       1.39627261       1.21416087
Si       3.60590042      -3.73493213       3.37910691
22
Lattice="5.369077981193619 -1.3539112643597924 0.6094880163823785 -3.3614542714521045 7.8597067332691415 -3.4777551517755434 1.6994840608188366 -6.508831360287296 14.992429842968306" Properties=species:S:1:pos:R:3 unique_starting_index=51 config_type=initial n_minim_iter=4 stress="0.0008095843880701743 0.001960559234835002 -0.0010221862640712731 0.001960559234835002 -0.0023824036614276574 -0.00011743305374159059 -0.0010221862640712731 -0.00011743305374159059 0.0008876830417263189" pbc="T T T"
Si       1.91100397       4.59302306       1.47469909
Si       2.22393052      -0.25070905       8.71562149
Si      -0.44077167       5.63123856      -1.94139479
Si      -0.96964802       3.43111442       1.83993427
Si       1.56022932      -0.45048790       6.48647708
Si       4.61021493      -1.79751840       6.68492588
Si      -0.52351056       0.44344340       0.73417255
Si      -0.09069425       1.90900524      -1.09879195
Si       1.90860491      -2.81275518       6.89467816
Si       4.64339869      -1.72157318      12.35500735
Si       0.22487928       0.50300209       9.72917581
Si       3.61402598      -0.18372630       5.26633789
Si      -0.09987183       1.57206890       3.01496032
Si       4.75845662      -5.42995290      13.97488740
Si       3.67576718      -3.90883303      12.52269735
Si       1.90830269       2.85511421       3.05714694
Si       1.30096578      -0.28503116       2.21944045
Si       4.41527649       0.71600348       8.97007992
Si       3.40109051      -2.47163046       8.72530267
Si       2.28459989      -1.63022824       3.92072634
Si       2.51866941       1.39587427       1.20615524
Si       3.60383605      -3.71627994       3.34938407
22
Lattice="5.367386700863366 -1.3842978752782935 0.6157756800245029 -3.39312566289294 7.924671296387003 -3.47093266814001 1.746110245936171 -6.562516349000896 14.932360094717493" Properties=species:S:1:pos:R:3 unique_starting_index=51 config_type=initial n_minim_iter=5 stress="-0.0006038979193618059 -0.0008323292526563631 0.00016057715641942547 -0.0008323292526563631 0.00025864041458831873 -0.0005081796615888635 0.00016057715641942547 -0.0005081796615888635 -8.125134004470843e-05" pbc="T T T"
Si       1.89060188       4.61028481       1.46686875
Si       2.24054495      -0.27438127       8.67887752
Si      -0.46180590       5.67387571      -1.93591738
Si      -0.97337808       3.46167980       1.82826127
Si       1.56882849      -0.45323452       6.46483732
Si       4.61889469      -1.82822330       6.65897044
Si      -0.51766751       0.44719937       0.72213323
Si      -0.10620905       1.92855980      -1.09368116
Si       1.92125912      -2.83865024       6.87045283
Si       4.65749817      -1.75890690      12.30519383
Si       0.24114550       0.50261551       9.69361089
Si       3.61438269      -0.20261518       5.25038763
Si      -0.10732164       1.58590525       3.00839372
Si       4.80516715      -5.48945532      13.92769043
Si       3.70339463      -3.94895861      12.47439369
Si       1.89290888       2.86246438       3.04654351
Si       1.30698147      -0.28587869       2.20990167
Si       4.42060024       0.69882984       8.93490746
Si       3.41768354      -2.51301427       8.68641193
Si       2.29157640      -1.65952997       3.91348953
Si       2.50492064       1.38830652       1.21018240
Si       3.62879587      -3.75331609       3.33908035
22
Lattice="5.369392174305201 -1.3710341114360154 0.6159967305227262 -3.380878267312838 7.913219891335291 -3.445080133008309 1.7471768665934881 -6.519484949535999 14.890566268663111" Properties=species:S:1:pos:R:3 unique_starting_index=51 config_type=initial n_minim_iter=6 stress="0.00026262524316095134 0.0004538951334236103 0.000919011604501462 0.0004538951334236103 0.0003599053721414449 0.0016596799579676697 0.000919011604501462 0.0016596799579676697 -0.0005475102089270055" pbc="T T T"
Si       1.90513028       4.61981406       1.48030825
Si       2.25402348      -0.25078715       8.66833613
Si      -0.44820902       5.67632508      -1.91687265
Si      -0.96079868       3.47180073       1.83274097
Si       1.57260913      -0.42317929       6.45553346
Si       4.62487148      -1.79897452       6.64419053
Si      -0.51175751       0.44749926       0.71621924
Si      -0.10362472       1.93184012      -1.08572071
Si       1.91598318      -2.81396244       6.85261871
Si       4.66670097      -1.71425899      12.28251386
Si       0.25733738       0.53421329       9.68317555
Si       3.61805306      -0.17975173       5.24626377
Si      -0.10591276       1.59976255       3.01335414
Si       4.81296435      -5.43917270      13.89523127
Si       3.70847856      -3.90774209      12.44755662
Si       1.89963254       2.87754485       3.05264653
Si       1.31110748      -0.27462429       2.20861667
Si       4.43729710       0.73579005       8.92605111
Si       3.42356073      -2.48958773       8.66246163
Si       2.29077842      -1.65027032       3.90810946
Si       2.51082103       1.39763322       1.21819557
Si       3.63409332      -3.73662314       3.32170168
22
Lattice="5.367799732096433 -1.351655581966907 0.5959751946011049 -3.337705941848664 7.916927851055204 -3.4432982852401293 1.6605298911742281 -6.55930108404305 14.862072935938595" Properties=species:S:1:pos:R:3 unique_starting_index=51 config_type=initial n_minim_iter=7 stress="0.0007839154954164301 0.001958587374034686 -0.0016858934071438524 0.001958587374034686 0.001594010064322334 0.0007938891666878602 -0.0016858934071438524 0.0007938891666878602 2.1373131051086475e-06" pbc="T T T"
Si       1.92333814       4.61710883       1.45772395
Si       2.23276447      -0.29190521       8.64685897
Si      -0.40764990       5.70359154      -1.92802715
Si      -0.94379972       3.48167725       1.81449198
Si       1.53306734      -0.40597487       6.43556697
Si       4.59553043      -1.80045014       6.60075561
Si      -0.49625522       0.43909666       0.69573545
Si      -0.09039994       1.95611664      -1.08655255
Si       1.84980877      -2.81984084       6.83179282
Si       4.60379058      -1.73470220      12.22877317
Si       0.24132288       0.51752261       9.66681662
Si       3.58145053      -0.18366867       5.22258526
Si      -0.13124666       1.60660141       3.02022192
Si       4.74398008      -5.45344344      13.85826655
Si       3.63984947      -3.93776011      12.41590514
Si       1.88362051       2.87615246       3.03247393
Si       1.30608976      -0.27115633       2.20731437
Si       4.41812949       0.72854169       8.87934994
Si       3.38257320      -2.53437102       8.61048049
Si       2.26009402      -1.67646675       3.90678377
Si       2.51589821       1.40437793       1.21258897
Si       3.63823176      -3.72921681       3.28988426
22
Lattice="5.412395300299244 -1.3496417933925606 0.6090075726452979 -3.378834509801314 7.883206887149695 -3.4549200392097927 1.7139294260895863 -6.560986267141536 14.812581064360273" Properties=species:S:1:pos:R:3 unique_starting_index=51 config_type=initial n_minim_iter=8 stress="0.004959583067998216 0.0011443269942578644 0.000349945642171455 0.0011443269942578644 -0.0010851438002255876 1.374525395465124e-05 0.000349945642171455 1.374525395465124e-05 -0.0015369076180805068" pbc="T T T"
Si       1.94198819       4.57465910       1.44738238
Si       2.28249770      -0.33766712       8.62448513
Si      -0.41216359       5.69453298      -1.93797697
Si      -0.94027526       3.47223847       1.78546452
Si       1.54633267      -0.39379339       6.41072711
Si       4.64817002      -1.81330988       6.57527804
Si      -0.48251619       0.43023277       0.67333978
Si      -0.08903101       1.96506747      -1.08633280
Si       1.85301227      -2.81462887       6.80545608
Si       4.66124162      -1.76275204      12.17979233
Si       0.28784884       0.49793956       9.62960916
Si       3.60075365      -0.20347138       5.21057664
Si      -0.14526343       1.60214040       3.01758150
Si       4.81617600      -5.45110611      13.82153267
Si       3.69579729      -3.95983246      12.38190738
Si       1.88574316       2.84678146       3.01917137
Si       1.32337818      -0.27519665       2.21309414
Si       4.48216429       0.69475582       8.84375374
Si       3.43482580      -2.57766727       8.56315507
Si       2.27854032      -1.69997674       3.91041162
Si       2.54336848       1.39301963       1.21818299
Si       3.70373496      -3.71447184       3.27276491
22
Lattice="5.373516696403441 -1.3541220113619636 0.5960548547670158 -3.3522892587221422 7.890758556144836 -3.4391422800043454 1.6739053637702188 -6.541887778601743 14.828748509296027" Properties=species:S:1:pos:R:3 unique_starting_index=51 config_type=initial n_minim_iter=9 stress="-0.0003772206464013619 -0.0003427624834190405 -0.0014220069189621897 -0.0003427624834190405 7.182056903989351e-05 0.001186026040440569 -0.0014220069189621897 0.001186026040440569 0.0008011192034557135" pbc="T T T"
Si       1.92778041       4.57335001       1.46050956
Si       2.25849673      -0.34136347       8.65299405
Si      -0.40262060       5.71817601      -1.93457592
Si      -0.93150732       3.49427656       1.78723304
Si       1.50681445      -0.35569175       6.42148605
Si       4.60138044      -1.80912321       6.57015707
Si      -0.46550259       0.42724947       0.66414058
Si      -0.07829676       1.97985443      -1.08615242
Si       1.79714009      -2.79696626       6.80306866
Si       4.59816984      -1.74482908      12.18879006
Si       0.28683677       0.52573805       9.65746289
Si       3.54150652      -0.20040977       5.21817741
Si      -0.16877302       1.62185751       3.04032410
Si       4.74946086      -5.42308726      13.83456862
Si       3.64217153      -3.95369581      12.39986901
Si       1.84770299       2.85225270       3.03397529
Si       1.30824493      -0.27378680       2.23083811
Si       4.43981753       0.70455534       8.85427409
Si       3.39906273      -2.60011154       8.54982737
Si       2.24620100      -1.71493781       3.92199499
Si       2.53371401       1.40160115       1.22570218
Si       3.69557909      -3.71084448       3.24430449
22
Lattice="5.360901146086109 -1.345041364859985 0.6157048470257132 -3.3362399157558964 7.90654271167985 -3.4668136122981403 1.7002028007445908 -6.59152573987405 14.82984995317979" Properties=species:S:1:pos:R:3 unique_starting_index=51 config_type=initial n_minim_iter=10 stress="-0.0015128602981373082 0.0009955114441116924 0.0005576815596973611 0.0009955114441116924 0.0010716589777188658 -0.0007074237549822042 0.0005576815596973611 -0.0007074237549822042 -0.00027759670062331687" pbc="T T T"
Si       1.94015515       4.58198875       1.45202463
Si       2.28041578      -0.36026046       8.64899414
Si      -0.39486318       5.73506838      -1.95006568
Si      -0.91476000       3.49444651       1.77004971
Si       1.52204222      -0.36834355       6.41921500
Si       4.60617017      -1.82044424       6.58058788
Si      -0.45964854       0.42431657       0.66233461
Si      -0.07472803       1.98524332      -1.09205098
Si       1.80491668      -2.81490702       6.80280573
Si       4.62434625      -1.76999826      12.18944905
Si       0.31917950       0.49965610       9.64094781
Si       3.54657993      -0.20773048       5.22175494
Si      -0.15596727       1.61538055       3.02903241
Si       4.76797462      -5.45962117      13.84533013
Si       3.66412241      -3.98584695      12.40253813
Si       1.85891829       2.85179092       3.02928821
Si       1.30978962      -0.27774291       2.23555376
Si       4.46007702       0.68818948       8.85238476
Si       3.41357888      -2.62480430       8.55316969
Si       2.25070895      -1.72433663       3.92813160
Si       2.53952799       1.40938296       1.22765138
Si       3.68916064      -3.71605964       3.25908276
22
Lattice="5.388525203530161 -1.364228232429822 0.6281471004500233 -3.397315024718279 7.8723937986589165 -3.4808972807729237 1.7719184547092626 -6.557846576935156 14.863664781838986" Properties=species:S:1:pos:R:3 unique_starting_index=51 config_type=initial n_minim_iter=11 stress="0.000488538370169737 -0.0013862695783446327 0.001476061643645399 -0.0013862695783446327 -0.0008336444069552364 -0.001264924145821346 0.001476061643645399 -0.001264924145821346 -0.00031339945805526414" pbc="T T T"
Si       1.92236660       4.54438320       1.45959199
Si       2.30717959      -0.35585474       8.66767180
Si      -0.44153353       5.70034596      -1.95790594
Si      -0.93325044       3.47457886       1.77014710
Si       1.54716180      -0.37615614       6.44898201
Si       4.63474027      -1.83317076       6.61329302
Si      -0.46173753       0.42412261       0.68044746
Si      -0.08536199       1.95656824      -1.10186256
Si       1.84344946      -2.79839245       6.80680862
Si       4.69039963      -1.77688274      12.22736518
Si       0.33106176       0.48834050       9.65316732
Si       3.56609015      -0.22891087       5.23784424
Si      -0.15527671       1.59751040       3.01841304
Si       4.84204424      -5.45374944      13.89057760
Si       3.73091838      -3.96428151      12.42428648
Si       1.85640923       2.81730088       3.05021091
Si       1.31109951      -0.27968487       2.25067210
Si       4.48578557       0.64240394       8.87973787
Si       3.46087814      -2.62967607       8.58041312
Si       2.29008839      -1.71748307       3.93705630
Si       2.55435696       1.39362040       1.23403441
Si       3.71881429      -3.70467883       3.27222181
22
Lattice="5.381777453329672 -1.3434184375431402 0.6183966159348928 -3.3677089963572304 7.836983193677668 -3.45953387829078 1.732759699767447 -6.513285762988719 14.830422530727104" Properties=species:S:1:pos:R:3 unique_starting_index=51 config_type=initial n_minim_iter=12 stress="-0.0003789795995224737 -0.00036152581096515394 0.00011403319875364086 -0.00036152581096515394 -0.0004477221969945581 -3.3399491518301466e-05 0.00011403319875364086 -3.3399491518301466e-05 -0.00023926956976506446" pbc="T T T"
Si       1.93488476       4.52346237       1.46631956
Si       2.31442275      -0.36076662       8.66577733
Si      -0.42026195       5.71467147      -1.95437898
Si      -0.90381384       3.49024783       1.75628249
Si       1.51615568      -0.31237883       6.45958268
Si       4.60647439      -1.80661628       6.58902446
Si      -0.43114133       0.41515642       0.67199592
Si      -0.07184908       1.95835670      -1.10677650
Si       1.78137134      -2.74963833       6.76503457
Si       4.67236166      -1.73675049      12.19444240
Si       0.34859448       0.50597157       9.64743023
Si       3.52044035      -0.22136376       5.22948286
Si      -0.18662061       1.60896794       3.02671991
Si       4.81255261      -5.39262379      13.87143398
Si       3.70289411      -3.92116837      12.39056344
Si       1.82924938       2.80459789       3.07023757
Si       1.30160923      -0.25946553       2.27409840
Si       4.48655767       0.63869448       8.85770591
Si       3.44557643      -2.66450848       8.52500516
Si       2.27803330      -1.73152003       3.94241152
Si       2.57328418       1.40612326       1.25093360
Si       3.73774783      -3.66170115       3.22363625
22
Lattice="5.382235869268594 -1.3267267945291785 0.6130808418506678 -3.346206000884716 7.816286215163989 -3.4519973784721247 1.7040402098572638 -6.490780045966656 14.82790503040645" Properties=species:S:1:pos:R:3 unique_starting_index=51 config_type=initial n_minim_iter=13 stress="0.00047993906329882216 0.0014020232328252266 -0.0009939186851804795 0.0014020232328252266 0.0011790160199489418 0.0008928193578537322 -0.0009939186851804795 0.0008928193578537322 0.000491791753503444" pbc="T T T"
Si       1.94413099       4.51259476       1.46903291
Si       2.31770318      -0.35922851       8.66793100
Si      -0.40616683       5.72611659      -1.95164737
Si      -0.87889143       3.50090679       1.75080684
Si       1.49334569      -0.27226062       6.48353216
Si       4.59516098      -1.78648378       6.58522907
Si      -0.41599631       0.41266410       0.67429067
Si      -0.06595507       1.94660105      -1.11576263
Si       1.75786558      -2.71385811       6.74242057
Si       4.67453042      -1.70433894      12.19096684
Si       0.35106776       0.50550715       9.65212199
Si       3.50524930      -0.21197364       5.22592610
Si      -0.21167582       1.60891591       3.03047371
Si       4.79935291      -5.35790978      13.87308308
Si       3.68952561      -3.89564818      12.37668768
Si       1.81717489       2.79421280       3.09239413
Si       1.29962906      -0.23791388       2.29213827
Si       4.49399242       0.63364000       8.85344909
Si       3.42480135      -2.68590552       8.50268196
Si       2.27395413      -1.73860020       3.94189188
Si       2.58351851       1.41487315       1.26674629
Si       3.74503507      -3.63383625       3.19990039
22
Lattice="5.395687223864878 -1.344632662807487 0.6312820707290772 -3.391692956547237 7.804987332786767 -3.4877767060991465 1.7703543784271962 -6.515205370856765 14.862521711295978" Properties=species:S:1:pos:R:3 unique_starting_index=51 config_type=initial n_minim_iter=14 stress="0.0001669193280125019 -0.00044382352339990185 0.000507102813263337 -0.00044382352339990185 -0.00013533812543691214 -0.0002606031370393582 0.000507102813263337 -0.0002606031370393582 8.679883689688604e-05" pbc="T T T"
Si       1.92861164       4.47206329       1.46158996
Si       2.34120054      -0.39448353       8.68001775
Si      -0.43678541       5.71432126      -1.96447792
Si      -0.88117801       3.48596369       1.73636217
Si       1.49900108      -0.28485182       6.50122193
Si       4.63303502      -1.81753990       6.61163114
Si      -0.41996343       0.41491074       0.67704761
Si      -0.07513308       1.92345938      -1.13024990
Si       1.80523140      -2.71428346       6.74828115
Si       4.73131124      -1.74237552      12.22190131
Si       0.36969122       0.45844040       9.65525344
Si       3.52757352      -0.23783741       5.23677242
Si      -0.22879469       1.58730019       3.02414137
Si       4.85901402      -5.39294754      13.90360429
Si       3.74718267      -3.94334844      12.40004311
Si       1.81215190       2.75851921       3.10376999
Si       1.31368276      -0.24067570       2.30857754
Si       4.52789080       0.57817464       8.86857153
Si       3.44071248      -2.72204221       8.52190060
Si       2.29047656      -1.75515392       3.94390537
Si       2.58361825       1.39850501       1.27437493
Si       3.77140854      -3.64591431       3.21701639
22
Lattice="5.3917816575258 -1.3400908580144608 0.627797360144078 -3.3835949183112413 7.790188694886773 -3.492469505611681 1.7533455314652664 -6.517410849640359 14.862426017035196" Properties=species:S:1:pos:R:3 unique_starting_index=51 config_type=initial n_minim_iter=15 stress="-0.0007591346822057435 0.0003279990320979498 -0.000901932652152681 0.0003279990320979498 -0.00023492350619201176 0.00016869479102215576 -0.000901932652152681 0.00016869479102215576 -0.0006052604848862291" pbc="T T T"
Si       1.92782399       4.44244920       1.45676093
Si       2.33474273      -0.41282267       8.68137491
Si      -0.42836840       5.71640643      -1.96096264
Si      -0.86618705       3.48165259       1.72269307
Si       1.48906220      -0.25847882       6.50132846
Si       4.62084146      -1.82045916       6.60996876
Si      -0.41591639       0.41731288       0.67646344
Si      -0.07130814       1.90631307      -1.14311606
Si       1.80181227      -2.68904027       6.72422143
Si       4.72314820      -1.74484070      12.22568898
Si       0.36696032       0.43575797       9.64896232
Si       3.50164444      -0.24699111       5.24704631
Si      -0.25338415       1.58524436       3.01775663
Si       4.83723522      -5.39106430      13.89845665
Si       3.74263315      -3.95695711      12.39057489
Si       1.79868735       2.74409280       3.11992330
Si       1.31507411      -0.23211426       2.32725140
Si       4.53137406       0.55499688       8.85764908
Si       3.40793387      -2.74157428       8.50537358
Si       2.27573971      -1.76320687       3.93875981
Si       2.59237221       1.40899347       1.26700115
Si       3.77713303      -3.64904046       3.20007663
22
Lattice="5.401582546446854 -1.3423943710347557 0.6457674651723544 -3.4058996727959623 7.7698412756784245 -3.5287385402399227 1.7996764679708945 -6.537357522890248 14.900310168913032" Properties=species:S:1:pos:R:3 unique_starting_index=51 config_type=initial n_minim_iter=16 stress="-0.00027851242444658814 0.0002757786496146506 -0.0002593524262638327 0.0002757786496146506 -3.5057167058569886e-05 9.590771588597066e-05 -0.0002593524262638327 9.590771588597066e-05 -0.00013362299839807023" pbc="T T T"
Si       1.92297603       4.38228349       1.44922943
Si       2.36543321      -0.45886437       8.69902568
Si      -0.43300093       5.71187248      -1.96458789
Si      -0.84264562       3.46972988       1.69732224
Si       1.50882039      -0.22491763       6.51849177
Si       4.63628762      -1.84036958       6.63740493
Si      -0.40750086       0.42289884       0.67453046
Si      -0.08404459       1.87822737      -1.16974472
Si       1.83474710      -2.65660262       6.70385952
Si       4.76620398      -1.77723898      12.27313290
Si       0.39263356       0.38312711       9.65880621
Si       3.49291293      -0.27754770       5.28744914
Si      -0.28465976       1.57807539       3.01008870
Si       4.88904697      -5.41861045      13.93991085
Si       3.80111073      -3.98738104      12.41028895
Si       1.79038287       2.71201900       3.15647709
Si       1.33145921      -0.21384323       2.35829087
Si       4.57625789       0.49572155       8.86772596
Si       3.39803814      -2.77925389       8.51105956
Si       2.27749083      -1.78215650       3.95111867
Si       2.60574825       1.41499282       1.26384057
Si       3.81561982      -3.66582811       3.20059742
22
Lattice="5.419665534330771 -1.3524111652391044 0.6617503968404469 -3.441661875158223 7.762838557159154 -3.5512162376603658 1.8568934612022625 -6.544503260502125 14.9293634340689" Properties=species:S:1:pos:R:3 unique_starting_index=51 config_type=initial n_minim_iter=17 stress="0.0013390341487964153 -0.0010309279276063549 0.000809232372778883 -0.0010309279276063549 0.00015608594440290634 -0.00034990542611425566 0.000809232372778883 -0.00034990542611425566 0.0008654859282905593" pbc="T T T"
Si       1.90963659       4.34677816       1.44633416
Si       2.39205296      -0.47291981       8.70414235
Si      -0.45353418       5.69069703      -1.96351067
Si      -0.84798998       3.45775414       1.68604483
Si       1.52475705      -0.20858398       6.53353805
Si       4.67123041      -1.86451134       6.66974985
Si      -0.40505566       0.43024696       0.68317533
Si      -0.10430822       1.85725934      -1.18929301
Si       1.87392494      -2.64079599       6.69072001
Si       4.81568673      -1.80302646      12.31911878
Si       0.39865068       0.35377661       9.67509867
Si       3.53018508      -0.29976964       5.30292566
Si      -0.29641039       1.57189934       3.01261198
Si       4.95954060      -5.45025553      13.96826306
Si       3.86583450      -3.99457162      12.43345918
Si       1.80241256       2.69816171       3.18681597
Si       1.34282372      -0.19073771       2.36171260
Si       4.61001633       0.45856385       8.88518415
Si       3.42177071      -2.77664731       8.53567083
Si       2.29978104      -1.78227453       3.96594097
Si       2.60882948       1.41845466       1.26068999
Si       3.84803149      -3.68884654       3.21380622
22
Lattice="5.417842833867902 -1.3411379696819967 0.6708819751741364 -3.433957038151449 7.741152200683795 -3.563584134494559 1.8682330289416245 -6.54733179329432 14.920082781255097" Properties=species:S:1:pos:R:3 unique_starting_index=51 config_type=initial n_minim_iter=18 stress="0.0005664994652275918 -0.00047247038365090966 0.0006695115189520276 -0.00047247038365090966 -7.753715759042316e-05 -0.00016840622068596078 0.0006695115189520276 -0.00016840622068596078 -0.00020285038876179315" pbc="T T T"
Si       1.91104194       4.29440184       1.44102073
Si       2.40410638      -0.49537302       8.69478369
Si      -0.43959414       5.67698272      -1.95241519
Si      -0.83287865       3.44740167       1.65424172
Si       1.52073581      -0.14519810       6.52343536
Si       4.68184685      -1.88181336       6.68071460
Si      -0.39130948       0.43635795       0.68266181
Si      -0.10785514       1.83374094      -1.21655524
Si       1.87785764      -2.59398842       6.63516667
Si       4.83084895      -1.81417386      12.34042218
Si       0.40793645       0.31882365       9.67125023
Si       3.53258746      -0.31991008       5.31579752
Si      -0.32361434       1.57797331       3.01618633
Si       4.97007314      -5.46229222      13.95115333
Si       3.89774944      -4.00745656      12.42892037
Si       1.80500696       2.68622667       3.22894294
Si       1.35045836      -0.15319133       2.37620731
Si       4.63829761       0.42710794       8.87369269
Si       3.40890412      -2.78054164       8.51955307
Si       2.29215684      -1.78516252       3.97552294
Si       2.62282490       1.45218285       1.24437234
Si       3.87484947      -3.70975464       3.19285425
22
Lattice="5.4074595655149835 -1.3320411554492138 0.6688032514230016 -3.4140835918587733 7.735346643341533 -3.5639501175159003 1.8479734260214076 -6.54414560766505 14.927948597004375" Properties=species:S:1:pos:R:3 unique_starting_index=51 config_type=initial n_minim_iter=19 stress="-0.0004047533616835076 0.0004121787748736967 -0.0001520280263238568 0.0004121787748736967 2.0214647327689566e-05 8.535629192477026e-05 -0.0001520280263238568 8.535629192477026e-05 -0.000206149420710782" pbc="T T T"
Si       1.91393682       4.28372048       1.44021262
Si       2.38749775      -0.48823690       8.69272771
Si      -0.42493923       5.66630346      -1.94435338
Si      -0.83316834       3.44023003       1.64873956
Si       1.51588460      -0.12083496       6.51807422
Si       4.67553905      -1.88542152       6.68846024
Si      -0.39383852       0.43968118       0.68616617
Si      -0.10407329       1.82384409      -1.22529269
Si       1.87567061      -2.57678190       6.62488327
Si       4.81511376      -1.80940371      12.36119807
Si       0.39478397       0.31156372       9.68087978
Si       3.53264806      -0.32086052       5.32327006
Si      -0.32154545       1.58481264       3.02228187
Si       4.94224022      -5.46439026      13.94608849
Si       3.88538146      -4.00887022      12.44052411
Si       1.80981421       2.69138866       3.24795105
Si       1.34967227      -0.13601686       2.37610917
Si       4.63046363       0.43298489       8.87783849
Si       3.39184583      -2.75963163       8.52592346
Si       2.28070492      -1.77394544       3.97718442
Si       2.62020335       1.47430712       1.23003484
Si       3.86559129      -3.72153206       3.18717235
22
Lattice="5.403440215024987 -1.3174846869900632 0.6729921043037336 -3.3994980162956243 7.704003544489623 -3.576196293764486 1.8414186253285423 -6.533415855706933 14.945291003916036" Properties=species:S:1:pos:R:3 unique_starting_index=51 config_type=initial n_minim_iter=20 stress="-0.0010777040459583455 0.0009046551568810037 -0.0010452408885372466 0.0009046551568810037 -0.00014344812895835556 0.0004882495270422599 -0.0010452408885372466 0.0004882495270422599 -0.0006525017588957161" pbc="T T T"
Si       1.92178014       4.22762642       1.43449356
Si       2.37496447      -0.49409796       8.68503206
Si      -0.40624157       5.64177350      -1.93383213
Si      -0.82864150       3.42410506       1.62225253
Si       1.51010461      -0.04821235       6.51803811
Si       4.68399628      -1.90384596       6.70513157
Si      -0.39113979       0.44152811       0.68916624
Si      -0.09922448       1.79388905      -1.25004883
Si       1.87812855      -2.52254699       6.59430058
Si       4.82297808      -1.81074301      12.40556030
Si       0.38992777       0.27787744       9.70005239
Si       3.53435161      -0.34013988       5.34501063
Si      -0.33023414       1.59754384       3.03557396
Si       4.93017317      -5.47245182      13.94516162
Si       3.89058553      -4.01915591      12.46138613
Si       1.80713750       2.67326209       3.30556972
Si       1.35715218      -0.09080119       2.39160558
Si       4.64319395       0.41056535       8.88554447
Si       3.37828490      -2.75328483       8.52399492
Si       2.27044896      -1.76473510       3.98433807
Si       2.62044519       1.51589451       1.21017055
Si       3.88405585      -3.73460812       3.16421289
22
Lattice="5.397253737616187 -1.2990112889112089 0.6801051036920632 -3.3795796383038184 7.669158268665349 -3.5969414953256127 1.8343398641118458 -6.521139675023197 14.994136831903525" Properties=species:S:1:pos:R:3 unique_starting_index=51 config_type=initial n_minim_iter=21 stress="-0.001628063770817589 0.0014966872532786823 -0.0013826218458740402 0.0014966872532786823 8.219036860264034e-05 0.0006126793155783868 -0.0013826218458740402 0.0006126793155783868 -7.53698901873492e-05" pbc="T T T"
Si       1.93938121       4.17122216       1.42353942
Si       2.34703968      -0.48506466       8.67424980
Si      -0.38289766       5.60396206      -1.92778675
Si      -0.83605209       3.40060578       1.60150937
Si       1.51682075       0.02439121       6.52384370
Si       4.70083527      -1.92779047       6.73274064
Si      -0.40083133       0.43844052       0.69375800
Si      -0.09391564       1.76299470      -1.26790750
Si       1.88849409      -2.47457105       6.60289308
Si       4.83386198      -1.81508668      12.47879156
Si       0.37780360       0.24144192       9.74312438
Si       3.55031324      -0.35899875       5.37767621
Si      -0.30860159       1.61696996       3.06056450
Si       4.91890773      -5.49342718      13.97217827
Si       3.88035150      -4.02741236      12.51457985
Si       1.81274842       2.65519288       3.37644725
Si       1.36807665      -0.03725735       2.39982849
Si       4.64533538       0.39773374       8.91801352
Si       3.38052533      -2.73152781       8.54703214
Si       2.26390682      -1.74016540       3.99196458
Si       2.59948914       1.56457282       1.18469011
Si       3.89536620      -3.74373100       3.15337236
