10
Lattice="7.384312517724855 -0.27190414818712083 1.5119530122755382 -3.5590581086761146 4.536102735106804 -0.4773512408809357 -0.6423644835220643 -1.9625688949454414 5.404320313827565" Properties=species:S:1:pos:R:3 unique_starting_index=21 config_type=initial n_minim_iter=1 energy=-1623.974464788324 free_energy=-1623.974464788324 pbc="T T T"
Si       3.80476348      -0.43843387       6.80303443
Si       0.09794384      -0.05689443       3.44278997
Si      -0.03012983       1.39893254       1.34266096
Si       2.06542655       3.96168435       1.79100748
Si       1.68503289       0.36853533       3.22825106
Si      -0.19385560       2.96933377       5.19452662
Si       3.18025213       2.27024289       3.31927313
Si      -1.52647413       0.96802699       4.91282422
Si       1.48491375       0.03804834       5.66990193
Si      -0.04997857       3.33427123       2.81883036
10
Lattice="7.383976157597371 -0.27206328533012936 1.5119425815975676 -3.5589726308281593 4.536073477835491 -0.47745634230155 -0.6422851490274224 -1.9626405916085747 5.404232141351781" Properties=species:S:1:pos:R:3 unique_starting_index=21 config_type=initial n_minim_iter=2 stress="-0.0008994673782727289 -0.0004365240171900279 -0.0001794380142858689 -0.0004365240171900279 -0.0005202710421371536 -0.0003207302886431159 -0.0001794380142858689 -0.0003207302886431159 -0.0004071391740349969" pbc="T T T"
Si       3.80458806      -0.43864836       6.80284709
Si       0.09798996      -0.05698901       3.44272893
Si      -0.03011758       1.39888687       1.34262259
Si       2.06522538       3.96150367       1.79085764
Si       1.68491656       0.36841614       3.22815726
Si      -0.19386233       2.96916317       5.19435986
Si       3.18007971       2.27006089       3.31914998
Si      -1.52641255       0.96791171       4.91267247
Si       1.48484515       0.03789622       5.66978237
Si      -0.05000390       3.33411571       2.81865519
10
Lattice="7.392207205160536 -0.2661823512353237 1.5214713722920745 -3.5586952125618727 4.53714146187587 -0.48335929643753756 -0.6378028529091118 -1.9666240848055474 5.404553422838956" Properties=species:S:1:pos:R:3 unique_starting_index=21 config_type=initial n_minim_iter=3 stress="0.0007440355639081529 0.00014945029453313294 0.0013611555065058006 0.00014945029453313294 0.001462765603962371 -0.0011295536128305042 0.0013611555065058006 -0.0011295536128305042 0.0008069952175851502" pbc="T T T"
Si       3.81304822      -0.43297138       6.80447211
Si       0.10448073      -0.06213916       3.44832998
Si      -0.02096021       1.40316874       1.34768182
Si       2.06501398       3.96390273       1.78891120
Si       1.68877008       0.36982466       3.22760579
Si      -0.18208006       2.96909989       5.19575665
Si       3.19048750       2.27467682       3.32346217
Si      -1.52199459       0.96513720       4.91015552
Si       1.49049814       0.03927597       5.67553261
Si      -0.03894786       3.33342380       2.81249169
10
Lattice="7.385674582774053 -0.2615430535370601 1.5087334901026594 -3.554856077898775 4.527813636161612 -0.4704692709474892 -0.6456873698380573 -1.9548183059863389 5.39640737938706" Properties=species:S:1:pos:R:3 unique_starting_index=21 config_type=initial n_minim_iter=4 stress="5.654407008453911e-05 0.00046922797736572087 0.0007002186077293099 0.00046922797736572087 -0.0006267741763141628 0.0001780101880613631 0.0007002186077293099 0.0001780101880613631 -0.0005478929199950914" pbc="T T T"
Si       3.79947640      -0.41749128       6.78888180
Si       0.10016583      -0.05904894       3.44710509
Si      -0.01947861       1.40418426       1.35144720
Si       2.05825304       3.95978262       1.78833037
Si       1.68317340       0.37512818       3.22081407
Si      -0.18770180       2.97130591       5.19530549
Si       3.18484039       2.27717680       3.31929403
Si      -1.52859105       0.97077470       4.90828297
Si       1.48024634       0.04936261       5.66865941
Si      -0.04015416       3.33099351       2.81240307
10
Lattice="7.385470546477607 -0.26507380695617094 1.490275737467744 -3.5582741528914874 4.534656162037794 -0.4568300950763822 -0.6594332423635932 -1.9511472501411808 5.402896204624226" Properties=species:S:1:pos:R:3 unique_starting_index=21 config_type=initial n_minim_iter=5 stress="0.001675966762522529 -0.0003295931616889603 -0.0006328227699416498 -0.0003295931616889603 0.0007012450659823166 0.0007211572375462829 -0.0006328227699416498 0.0007211572375462829 0.001703641058077245" pbc="T T T"
Si       3.78150222      -0.41135931       6.78379587
Si       0.09272561      -0.05801815       3.45366641
Si      -0.02219294       1.40676906       1.35719379
Si       2.04931983       3.96542547       1.78717654
Si       1.67450923       0.37725676       3.21993547
Si      -0.20290478       2.98014114       5.20547585
Si       3.17633048       2.28075410       3.31766119
Si      -1.54383824       0.97809381       4.91907851
Si       1.46505976       0.05446270       5.67230465
Si      -0.04916770       3.33706120       2.81844007
10
Lattice="7.380155556439488 -0.2573831930644759 1.486829691756905 -3.551000005002375 4.534590600131283 -0.45569623746564103 -0.6623555668549801 -1.953747348385413 5.396659004319195" Properties=species:S:1:pos:R:3 unique_starting_index=21 config_type=initial n_minim_iter=6 stress="0.0006512042428127221 0.0006769830743122587 -0.0004877322793135939 0.0006769830743122587 0.0009064411278810616 0.0005261243946404349 -0.0004877322793135939 0.0005261243946404349 0.00011776252768182565" pbc="T T T"
Si       3.77578554      -0.40614736       6.77331528
Si       0.09266373      -0.05964567       3.45158040
Si      -0.02047088       1.40645846       1.35720187
Si       2.05094061       3.97251357       1.78323365
Si       1.67335319       0.37851966       3.21575586
Si      -0.20055095       2.98257952       5.19857192
Si       3.17659155       2.28513622       3.31281446
Si      -1.54269150       0.97728433       4.91259544
Si       1.46297860       0.05575991       5.66507366
Si      -0.04648251       3.33982897       2.81528381
10
Lattice="7.3781741075191 -0.25908122105991493 1.4920474424236072 -3.550593693122522 4.532294708852625 -0.46017100192628835 -0.6576279850812158 -1.9545961655381097 5.39511329959349" Properties=species:S:1:pos:R:3 unique_starting_index=21 config_type=initial n_minim_iter=7 stress="-0.0018094771731400794 7.373748865223677e-07 2.6316283757668706e-05 7.373748865223677e-07 -0.0005672889341831501 -0.0006645666443709631 2.6316283757668706e-05 -0.0006645666443709631 -0.0014712216086095384" pbc="T T T"
Si       3.77683953      -0.40487406       6.77092768
Si       0.09659114      -0.06483501       3.45501875
Si      -0.01888355       1.40116254       1.36012499
Si       2.04879862       3.97319048       1.77985680
Si       1.67608809       0.37538709       3.21582066
Si      -0.19680463       2.97883035       5.19380079
Si       3.17866424       2.27948776       3.31324915
Si      -1.53795932       0.97585280       4.90707486
Si       1.46658664       0.05311747       5.66428875
Si      -0.04544689       3.33671524       2.81351728
10
Lattice="7.380578018555288 -0.25866831704825055 1.4891211351623606 -3.5524367990098904 4.528995260151989 -0.4552587272852158 -0.6598443834796699 -1.948810113449076 5.394961567751632" Properties=species:S:1:pos:R:3 unique_starting_index=21 config_type=initial n_minim_iter=8 stress="-0.0011705457330903383 0.0001958607308571596 0.0001267826859171377 0.0001958607308571596 -0.0003088664561502395 -0.00042339310771790804 0.0001267826859171377 -0.00042339310771790804 -0.0011099287304120675" pbc="T T T"
Si       3.77069549      -0.39170087       6.76378051
Si       0.09868209      -0.06921170       3.46406082
Si      -0.01755061       1.39502800       1.36913045
Si       2.04404887       3.97887493       1.77750182
Si       1.67586273       0.37509151       3.21588143
Si      -0.19831890       2.98207692       5.19567281
Si       3.18048282       2.27652478       3.31463689
Si      -1.53997470       0.98082172       4.90581065
Si       1.46408586       0.05780621       5.66579232
Si      -0.04703200       3.33641466       2.81669792
10
Lattice="7.3859126301208065 -0.2598970611709741 1.4885813420006546 -3.556563110922379 4.526335874011 -0.4516576581045816 -0.6606048211835079 -1.9431574041585988 5.397091144250769" Properties=species:S:1:pos:R:3 unique_starting_index=21 config_type=initial n_minim_iter=9 stress="-0.0005300684416763438 -0.00012023372417295843 0.00010213610921561558 -0.00012023372417295843 -0.00027490833483542027 -0.0002599008266776716 0.00010213610921561558 -0.0002599008266776716 -0.0003533435870386963" pbc="T T T"
Si       3.77045207      -0.38381094       6.76386647
Si       0.09973507      -0.07037170       3.46997937
Si      -0.01786631       1.39145599       1.37439346
Si       2.04244636       3.98047392       1.77896651
Si       1.67608249       0.37511859       3.21817583
Si      -0.19989959       2.98492237       5.20069041
Si       3.18245149       2.27423356       3.31750245
Si      -1.54148700       0.98487230       4.90812595
Si       1.46332009       0.06188819       5.67016728
Si      -0.04829053       3.33561157       2.82041292
10
Lattice="7.392384080362885 -0.2608394375673624 1.4837284461654112 -3.5617258253524993 4.523167506880155 -0.44354156139571677 -0.6647059267785294 -1.9343145889567261 5.399838642850308" Properties=species:S:1:pos:R:3 unique_starting_index=21 config_type=initial n_minim_iter=10 stress="0.001654777456001072 -1.5488895857846583e-05 -9.09337195991014e-05 -1.5488895857846583e-05 0.0006080822999625647 0.000594174783309921 -9.09337195991014e-05 0.000594174783309921 0.0013830003843788" pbc="T T T"
Si       3.76747000      -0.36982857       6.76190266
Si       0.09836566      -0.07233625       3.47772040
Si      -0.01993185       1.38656629       1.38135384
Si       2.04056121       3.98447448       1.78143702
Si       1.67357482       0.37529933       3.22136415
Si      -0.20480709       2.99230535       5.20893391
Si       3.18312314       2.27225400       3.31901761
Si      -1.54487292       0.99153610       4.91252991
Si       1.45751825       0.07011822       5.67730818
Si      -0.04991793       3.33495386       2.82472032
10
Lattice="7.389734410521246 -0.2584212131328166 1.4832414654001327 -3.55895394255486 4.52205642601602 -0.44363313306212676 -0.6648892123321009 -1.9347891240262303 5.39689459068123" Properties=species:S:1:pos:R:3 unique_starting_index=21 config_type=initial n_minim_iter=11 stress="-0.0008717820539854111 -0.0005467139523216704 5.372554106135883e-05 -0.0005467139523216704 -0.0006456495946566159 -0.00044230915036092244 5.372554106135883e-05 -0.00044230915036092244 -0.00032305410704116687" pbc="T T T"
Si       3.77031488      -0.36726046       6.75979497
Si       0.09540995      -0.07462808       3.47320484
Si      -0.02267726       1.38520516       1.37745051
Si       2.04536726       3.98595539       1.78248863
Si       1.67117902       0.37311830       3.22258805
Si      -0.20428671       2.99643034       5.20631506
Si       3.18142769       2.27230289       3.31393236
Si      -1.54015680       0.99043213       4.91047862
Si       1.45366852       0.07258052       5.67844611
Si      -0.04614370       3.33333300       2.82007669
10
Lattice="7.386883296201149 -0.25709485468040205 1.478704135227473 -3.557021354626433 4.522592982804945 -0.4408521347885154 -0.6680269488528079 -1.9345874806897014 5.395526858917274" Properties=species:S:1:pos:R:3 unique_starting_index=21 config_type=initial n_minim_iter=12 stress="0.0002713444483433581 0.00021391028880639594 -4.1018868836324215e-05 0.00021391028880639594 0.0002290125722377319 0.00016120610130334787 -4.1018868836324215e-05 0.00016120610130334787 6.923637862330575e-05" pbc="T T T"
Si       3.76515813      -0.36312857       6.75430077
Si       0.09367275      -0.07667757       3.47385538
Si      -0.02250714       1.38497640       1.37881975
Si       2.04333661       3.98862407       1.78046773
Si       1.66877094       0.37277049       3.22108090
Si      -0.20624583       2.99903318       5.20506278
Si       3.17901527       2.27294001       3.31120411
Si      -1.54151217       0.99168286       4.90974451
Si       1.44898769       0.07437751       5.67747121
Si      -0.04640267       3.33414177       2.81896365
10
Lattice="7.387236739778477 -0.2555288159018718 1.4760477963145078 -3.5568122966121685 4.5206475948338625 -0.43751798060415514 -0.6700606445135388 -1.9315244315869016 5.394332440276334" Properties=species:S:1:pos:R:3 unique_starting_index=21 config_type=initial n_minim_iter=13 stress="-0.00016430226559833154 0.00014278115998768312 -9.304356994180227e-05 0.00014278115998768312 0.00011959250554143555 -1.5223511586011331e-05 -9.304356994180227e-05 -1.5223511586011331e-05 -0.00021404008710751665" pbc="T T T"
Si       3.76369117      -0.35361806       6.74837256
Si       0.09321182      -0.08140729       3.47622324
Si      -0.02138247       1.38316750       1.38270643
Si       2.04108365       3.99108931       1.77924165
Si       1.66749110       0.36988896       3.22176956
Si      -0.20667160       3.00474200       5.20413243
Si       3.17713940       2.27071869       3.30997560
Si      -1.54043455       0.99617568       4.90966726
Si       1.44477668       0.07875686       5.67949884
Si      -0.04633124       3.33408062       2.81954861
10
Lattice="7.3917654338866265 -0.25643120228264665 1.4826846156631677 -3.5593001800382313 4.519062620240602 -0.44111528102672604 -0.6656083278822674 -1.9311427483120933 5.39562606820809" Properties=species:S:1:pos:R:3 unique_starting_index=21 config_type=initial n_minim_iter=14 stress="-0.0007517352001133987 -0.00040139894451829086 3.255068569769248e-05 -0.00040139894451829086 -0.00043587151870477884 -0.0003987863916854763 3.255068569769248e-05 -0.0003987863916854763 -0.00030797691071281317" pbc="T T T"
Si       3.77399758      -0.35684286       6.75524459
Si       0.09495721      -0.08058417       3.47368057
Si      -0.02049351       1.38481388       1.38085742
Si       2.04372532       3.98604299       1.78238307
Si       1.67085615       0.36749460       3.22459428
Si      -0.20243885       3.00435402       5.20434540
Si       3.17833655       2.26831255       3.31364887
Si      -1.53632865       0.99720512       4.91172273
Si       1.45071512       0.07760959       5.68176609
Si      -0.04576410       3.33311458       2.82159991
10
Lattice="7.391247454815579 -0.2553868783257049 1.4798888070934628 -3.558765785756559 4.518548719442538 -0.4385825337210611 -0.6676850035113612 -1.929684140536442 5.394901939848456" Properties=species:S:1:pos:R:3 unique_starting_index=21 config_type=initial n_minim_iter=15 stress="0.0005375646945992873 0.00024830158901806596 -9.963924177960926e-06 0.00024830158901806596 0.00027941621866957577 0.00027323584597158573 -9.963924177960926e-06 0.00027323584597158573 0.0002459373859994907" pbc="T T T"
Si       3.77097980      -0.35323345       6.75284110
Si       0.09362777      -0.08061714       3.47461934
Si      -0.02088689       1.38412477       1.38209007
Si       2.04310488       3.98789359       1.78209552
Si       1.66913460       0.36828712       3.22356143
Si      -0.20350166       3.00599407       5.20524020
Si       3.17777081       2.26915839       3.31263186
Si      -1.53774406       0.99829985       4.91165979
Si       1.44853852       0.07939964       5.68103724
Si      -0.04574325       3.33337205       2.82145355
10
Lattice="7.392022834995113 -0.255594062197159 1.4816498445892297 -3.559340132513573 4.516720547386278 -0.43910900212782833 -0.6662650626953195 -1.9283739275471856 5.394436787991928" Properties=species:S:1:pos:R:3 unique_starting_index=21 config_type=initial n_minim_iter=16 stress="0.0013146000822100983 0.0005981712420558181 4.933344618696344e-05 0.0005981712420558181 0.0006681305337262024 0.0006261546368107994 4.933344618696344e-05 0.0006261546368107994 0.000605349606355829" pbc="T T T"
Si       3.77583794      -0.34999187       6.75601864
Si       0.09034415      -0.08237543       3.47346569
Si      -0.02029091       1.38378156       1.38293911
Si       2.04257216       3.98628582       1.78264260
Si       1.66688450       0.36312351       3.22223252
Si      -0.19783361       3.00933182       5.20523123
Si       3.17434237       2.26511774       3.31369103
Si      -1.53429112       1.00259326       4.91324220
Si       1.45208237       0.07845277       5.67881655
Si      -0.04517635       3.33206869       2.82152391
10
Lattice="7.391799819812171 -0.25555248888476656 1.481195695237793 -3.5592482400873307 4.516686856473403 -0.43877078363079364 -0.6665635400075816 -1.92821369540134 5.3943408296632125" Properties=species:S:1:pos:R:3 unique_starting_index=21 config_type=initial n_minim_iter=17 stress="0.0004839220399583639 0.0002230635192403695 2.654140131216573e-05 0.0002230635192403695 0.0002421283457703005 0.00022888567010710605 2.654140131216573e-05 0.00022888567010710605 0.0002192398125691904" pbc="T T T"
Si       3.77514250      -0.34889894       6.75589939
Si       0.08962728      -0.08272089       3.47407949
Si      -0.02024625       1.38326245       1.38336343
Si       2.04229824       3.98687293       1.78221744
Si       1.66590577       0.36268834       3.22149996
Si      -0.19717766       3.00986967       5.20562664
Si       3.17387519       2.26487986       3.31357815
Si      -1.53439104       1.00308347       4.91330444
Si       1.45200290       0.07844264       5.67832892
Si      -0.04497876       3.33191144       2.82115735
10
Lattice="7.391319159578444 -0.25562629893625227 1.4807448298747494 -3.5590712064612533 4.516747775476072 -0.4385720992983609 -0.6668084013266599 -1.9282330673186077 5.394221686233501" Properties=species:S:1:pos:R:3 unique_starting_index=21 config_type=initial n_minim_iter=18 stress="-0.00022296562803810383 -0.00010261660510286723 -5.358262977935089e-06 -0.00010261660510286723 -0.00010741674926457004 -0.00011174617836470758 -5.358262977935089e-06 -0.00011174617836470758 -0.0001000255437825764" pbc="T T T"
Si       3.77434674      -0.34809010       6.75586738
Si       0.08878589      -0.08306451       3.47461055
Si      -0.02010139       1.38278038       1.38339350
Si       2.04214418       3.98716176       1.78158993
Si       1.66483793       0.36205508       3.22051135
Si      -0.19630972       3.01025714       5.20583513
Si       3.17302020       2.26453050       3.31349620
Si      -1.53448076       1.00364328       4.91347972
Si       1.45189790       0.07823816       5.67774164
Si      -0.04491235       3.33177133       2.82077536
10
Lattice="7.390802418756095 -0.2553858012092182 1.4803498528072414 -3.5587469006200774 4.516215912982723 -0.4381890288595786 -0.6669866421981575 -1.9277906752686786 5.393667326767623" Properties=species:S:1:pos:R:3 unique_starting_index=21 config_type=initial n_minim_iter=19 stress="-0.0009467991851159069 -0.00044159382315713046 -5.2516428119047785e-05 -0.00044159382315713046 -0.00046099126723671014 -0.00045686288314637286 -5.2516428119047785e-05 -0.00045686288314637286 -0.0004208672319227102" pbc="T T T"
Si       3.77345522      -0.34590445       6.75589874
Si       0.08733388      -0.08355747       3.47556309
Si      -0.01944963       1.38168572       1.38276026
Si       2.04280149       3.98704534       1.78045046
Si       1.66306922       0.36066172       3.21843391
Si      -0.19380568       3.01112406       5.20604931
Si       3.17123261       2.26376272       3.31385528
Si      -1.53432795       1.00533639       4.91403676
Si       1.45193895       0.07834161       5.67681134
Si      -0.04468526       3.33142761       2.82039027
10
Lattice="7.391722963832327 -0.25454531821708515 1.4817153731485357 -3.558759773411256 4.514767626846774 -0.43846306339613644 -0.6661043590169969 -1.9268749366236118 5.392921811851789" Properties=species:S:1:pos:R:3 unique_starting_index=21 config_type=initial n_minim_iter=20 stress="6.0157764211014816e-05 2.0280015843109914e-05 -1.295750539162623e-05 2.0280015843109914e-05 2.646722362504404e-05 3.6339722832435846e-05 -1.295750539162623e-05 3.6339722832435846e-05 3.289968601944545e-05" pbc="T T T"
Si       3.77512060      -0.34465080       6.75626305
Si       0.08781328      -0.08326436       3.47541778
Si      -0.01862497       1.38116079       1.38133640
Si       2.04493215       3.98570819       1.78056453
Si       1.66380533       0.36020775       3.21820478
Si      -0.19181896       3.01131455       5.20553045
Si       3.17118000       2.26353134       3.31511184
Si      -1.53349209       1.00649235       4.91430674
Si       1.45284756       0.07921531       5.67711290
Si      -0.04413355       3.33106376       2.82082124
10
Lattice="7.391990978020164 -0.2539272087458297 1.4827876605512558 -3.5584684944945506 4.514225567392381 -0.43909814298178607 -0.6654008301226148 -1.9269422354306416 5.392390289599327" Properties=species:S:1:pos:R:3 unique_starting_index=21 config_type=initial n_minim_iter=21 stress="9.550137499260623e-05 5.9627386651245584e-05 4.19226372280487e-05 5.9627386651245584e-05 4.181743303657562e-05 3.4130623819139215e-05 4.19226372280487e-05 3.4130623819139215e-05 2.7736452802157165e-05" pbc="T T T"
Si       3.77612940      -0.34428944       6.75659762
Si       0.08806333      -0.08325088       3.47528706
Si      -0.01806034       1.38058484       1.38076175
Si       2.04608396       3.98565139       1.78021942
Si       1.66420949       0.35979367       3.21833165
Si      -0.19059016       3.01151066       5.20487520
Si       3.17146578       2.26366553       3.31607800
Si      -1.53319089       1.00678090       4.91403882
Si       1.45399757       0.07908384       5.67660434
Si      -0.04288688       3.33050945       2.81990582
