16
Lattice="5.135600000000001 1.9736807604257947e-16 2.173679401591359e-15 0.6877109297071378 6.486907946376404 -7.083070681824661e-16 1.7565148848474361 1.604334062956168 9.897213975849361" Properties=species:S:1:pos:R:3 unique_starting_index=30 config_type=initial n_minim_iter=1 pbc="T T T"
Si       3.54975948       5.77948241       5.27107504
Si       4.03006633       2.31175960       4.62613894
Si       2.54198167       3.46079285       3.25697814
Si       5.03784414       4.63044916       6.64023584
Si       4.78532843       2.95958277       7.68538856
Si       2.79449738       5.13165924       2.21182542
Si       3.39296500       3.81916283       0.27731103
Si       4.18686081       4.27207918       9.61990295
Si       2.20109010       3.83910970       4.77378854
Si       5.37873571       4.25213231       5.12342544
Si       6.21863653       5.30398898       4.25845545
Si       1.36118928       2.78725303       5.63875853
Si       2.32630573       2.09974167       4.56237118
Si       5.25352008       5.99150034       5.33484280
Si       3.99799216       5.97343355       1.57698743
Si       3.58183365       2.11780846       8.32022655
16
Lattice="5.233414167401419 0.022018218323322774 -0.053331605352778734 0.7286210526545586 6.5920336068214755 -0.020959541800962583 1.6940688821991097 1.6160529969948827 10.081542692432025" Properties=species:S:1:pos:R:3 unique_starting_index=30 config_type=initial n_minim_iter=2 pbc="T T T"
Si       3.58770009       5.87514141       5.33198515
Si       4.06840401       2.35496342       4.67526640
Si       2.57223776       3.51791630       3.28797590
Si       5.08386634       4.71218852       6.71927565
Si       4.81104252       3.01084646       7.78923748
Si       2.84506158       5.21925836       2.21801406
Si       3.47246636       3.89500779       0.24047567
Si       4.18363774       4.33509703       9.76677588
Si       2.21169934       3.89942701       4.84300261
Si       5.44440476       4.33067782       5.16424894
Si       6.31838499       5.40668354       4.26759277
Si       1.33771911       2.82342128       5.73965878
Si       2.33396748       2.13190971       4.62731098
Si       5.32213662       6.09819511       5.37994057
Si       4.08521982       6.08265491       1.55451012
Si       3.57088428       2.14744991       8.45274142
16
Lattice="5.481331233431818 0.049016498083994685 -0.20698217269241925 0.7959219778605752 6.883622291894917 -0.06368338016548832 1.4911854282853099 1.662716050914631 10.610883258106792" Properties=species:S:1:pos:R:3 unique_starting_index=30 config_type=initial n_minim_iter=3 pbc="T T T"
Si       3.63333995       6.13366148       5.51983348
Si       4.13509869       2.46169336       4.82038423
Si       2.61887784       3.67020048       3.38345213
Si       5.14956080       4.92515436       6.95676557
Si       4.83185275       3.14216705       8.09188189
Si       2.93658589       5.45318779       2.24833581
Si       3.65231736       4.08692170       0.14454054
Si       4.11612128       4.50843314      10.19567717
Si       2.19961574       4.06541408       5.05257063
Si       5.56882290       4.52994076       5.28764707
Si       6.52619569       5.66355793       4.30578513
Si       1.24224295       2.93179691       6.03443258
Si       2.32750899       2.21707189       4.81666814
Si       5.44092965       6.37828295       5.52354957
Si       4.26726705       6.36692346       1.50509459
Si       3.50117159       2.22843138       8.83512312
16
Lattice="5.752687184842038 0.07688080334751844 -0.2593837358440359 0.8674555156867508 7.192249762036766 -0.14019303545128234 1.4917140790054477 1.641626696399182 10.774136709050433" Properties=species:S:1:pos:R:3 unique_starting_index=30 config_type=initial n_minim_iter=4 pbc="T T T"
Si       3.79691639       6.36851270       5.52851637
Si       4.31494039       2.54224457       4.84604357
Si       2.74080089       3.81132493       3.38397542
Si       5.37105589       5.09943233       6.99058452
Si       5.02515281       3.22590349       8.16542481
Si       3.08670397       5.68485377       2.20913513
Si       3.85436153       4.28832033       0.07638768
Si       4.25749525       4.62243693      10.29817226
Si       2.29099841       4.20417056       5.08471550
Si       5.82085837       4.70658671       5.28984444
Si       6.83989835       5.90585334       4.26764978
Si       1.27195843       3.00490392       6.10691016
Si       2.41380118       2.27433357       4.86302459
Si       5.69805560       6.63642370       5.51153535
Si       4.49804051       6.65515617       1.42911056
Si       3.61381627       2.25560110       8.94544938
16
Lattice="5.804320476059671 0.08673097393202363 -0.2755931168347327 0.8868117600486384 7.242138382732306 -0.15255900924533297 1.4812128516300864 1.641452601906826 10.815068041599963" Properties=species:S:1:pos:R:3 unique_starting_index=30 config_type=initial n_minim_iter=5 pbc="T T T"
Si       3.82614872       6.41033805       5.53449787
Si       4.34619637       2.55998391       4.85241805
Si       2.76325066       3.83673255       3.38578393
Si       5.40909443       5.13358941       7.00113199
Si       5.05533932       3.24557939       8.18354579
Si       3.11700577       5.72474257       2.20337013
Si       3.89546131       4.32370483       0.06118599
Si       4.27688377       4.64661713      10.32572993
Si       2.30579094       4.23033029       5.09568779
Si       5.86655415       4.73999167       5.29122812
Si       6.89962722       5.95185506       4.25981612
Si       1.27271787       3.01846690       6.12709980
Si       2.42601708       2.28638562       4.87497746
Si       5.74632800       6.68393634       5.51193846
Si       4.54546214       6.70561403       1.41437572
Si       3.62688295       2.26470793       8.97254019
16
Lattice="6.491581225041718 0.2264186994015436 -0.5087938805877749 1.1552863579521242 7.868951857429997 -0.308155089496758 1.3104931019047636 1.6498751006074615 11.36702073682981" Properties=species:S:1:pos:R:3 unique_starting_index=30 config_type=initial n_minim_iter=6 pbc="T T T"
Si       4.20585009       6.94756085       5.61800726
Si       4.75151059       2.79768481       4.93206450
Si       3.05764724       4.16422286       3.40964733
Si       5.89971345       5.58102279       7.14042444
Si       5.43629290       3.51175489       8.42128809
Si       3.52106779       6.23349076       2.12878368
Si       4.44822243       4.77845230      -0.14600881
Si       4.50913825       4.96679336      10.69608057
Si       2.49302115       4.56918118       5.24624797
Si       6.46433953       5.17606448       5.30382379
Si       7.69148187       6.55076508       4.14667334
Si       1.26587881       3.19448058       6.40339843
Si       2.57629734       2.44596540       5.03411087
Si       6.38106335       7.29928026       5.51596089
Si       5.18188256       7.35143268       1.21654815
Si       3.77547812       2.39381298       9.33352362
16
Lattice="6.722235768751738 0.25933820033707394 -0.63865650173583 1.2277548957871227 7.901600842055083 -0.2799327976453052 1.149398754020149 1.7377105305769176 11.462824861263572" Properties=species:S:1:pos:R:3 unique_starting_index=30 config_type=initial n_minim_iter=7 pbc="T T T"
Si       4.26339541       7.03161411       5.63882756
Si       4.83599401       2.86703546       4.90540800
Si       3.11633529       4.21568735       3.40625530
Si       5.98305413       5.68296222       7.13798026
Si       5.47695624       3.61196338       8.42130567
Si       3.62243318       6.28668619       2.12292989
Si       4.62162103       4.82490643      -0.19942137
Si       4.47776838       5.07374314      10.74365694
Si       2.49638423       4.63968896       5.28406551
Si       6.60300519       5.25896061       5.26017005
Si       7.90670603       6.64456245       4.07282174
Si       1.19268339       3.25408712       6.47141382
Si       2.58044685       2.49580704       5.04340899
Si       6.51894257       7.40284253       5.50082657
Si       5.36181656       7.41462727       1.17641033
Si       3.73757286       2.48402230       9.36782523
16
Lattice="6.840496478451194 0.2761397224494753 -0.7386861738947293 1.2648136834492056 7.811097881017722 -0.22427786726678586 1.0023208822667906 1.8258685788134004 11.409970439354131" Properties=species:S:1:pos:R:3 unique_starting_index=30 config_type=initial n_minim_iter=8 pbc="T T T"
Si       4.25823239       7.01598175       5.61287669
Si       4.84939865       2.89712444       4.83412971
Si       3.12828550       4.20572187       3.37610387
Si       5.97934554       5.70738431       7.07090253
Si       5.44617902       3.66897341       8.33301804
Si       3.66145202       6.24413277       2.11398836
Si       4.70969084       4.79040613      -0.22356362
Si       4.39794021       5.12270006      10.67057002
Si       2.46559476       4.64865722       5.27076991
Si       6.64203629       5.26444896       5.17623649
Si       7.99170272       6.63439677       3.98567761
Si       1.11592832       3.27870941       6.46132879
Si       2.55487022       2.51663423       4.99814805
Si       6.55276082       7.39647195       5.44885835
Si       5.44257152       7.35817468       1.15603411
Si       3.66505952       2.55493150       9.29097229
16
Lattice="6.947067953760817 0.28718733440707217 -0.8507966129923815 1.2930392481664097 7.642596682757718 -0.13735504742834853 0.8261656984875839 1.9431330769941095 11.18953799756172" Properties=species:S:1:pos:R:3 unique_starting_index=30 config_type=initial n_minim_iter=9 pbc="T T T"
Si       4.22655306       6.95439928       5.51593635
Si       4.83971984       2.91851781       4.68544998
Si       3.12646290       4.16509317       3.29856934
Si       5.93981000       5.70782393       6.90281700
Si       5.38076383       3.72437815       8.11710957
Si       3.68550907       6.14853894       2.08427677
Si       4.78657362       4.71216558      -0.23959411
Si       4.27969928       5.16075151      10.44098045
Si       2.41355104       4.63702093       5.19357273
Si       6.65272186       5.23589616       5.00781361
Si       8.04659351       6.57736101       3.83551963
Si       1.01967939       3.29555608       6.36586671
Si       2.51234565       2.52970192       4.87689055
Si       6.55392725       7.34321517       5.32449578
Si       5.50198982       7.23279530       1.12974355
Si       3.56428308       2.64012179       9.07164278
16
Lattice="7.082800609037791 0.2805239517991135 -0.949690571770047 1.3027985909818225 7.568274836379722 -0.07084910129907131 0.67992211774143 2.0443680960464143 10.787028329900133" Properties=species:S:1:pos:R:3 unique_starting_index=30 config_type=initial n_minim_iter=10 pbc="T T T"
Si       4.20979864       6.94963983       5.31032356
Si       4.85572268       2.94352706       4.45616510
Si       3.13847661       4.15152887       3.15471072
Si       5.92704470       5.74163801       6.61177794
Si       5.34889732       3.77988452       7.76565104
Si       3.71662400       6.11328237       2.00083762
Si       4.87188750       4.68383401      -0.26400288
Si       4.19363382       5.20933287      10.03049154
Si       2.37614527       4.66231020       5.02531743
Si       6.68937605       5.23085668       4.74117122
Si       8.12474123       6.56990759       3.60515151
Si       0.94078009       3.32325929       6.16133714
Si       2.48762909       2.54395846       4.67077943
Si       6.57789223       7.34920842       5.09570923
Si       5.56594163       7.17622620       1.06441597
Si       3.49957969       2.71694069       8.70207268
16
Lattice="7.244909130425824 0.2710967110989692 -1.0490009865171768 1.3125988400952722 7.561290498274265 -0.0806773080210421 0.5410338014046968 2.0450236040597125 10.151247896900095" Properties=species:S:1:pos:R:3 unique_starting_index=30 config_type=initial n_minim_iter=11 pbc="T T T"
Si       4.20942779       6.94306893       4.91941578
Si       4.88911398       2.93434188       4.10215382
Si       3.16862127       4.12984176       2.89430060
Si       5.92992051       5.74756905       6.12726900
Si       5.33314804       3.77110619       7.21658900
Si       3.76539373       6.10630462       1.80498060
Si       4.97209988       4.69722675      -0.33961318
Si       4.12644189       5.18018406       9.36118278
Si       2.35067861       4.67396476       4.71242881
Si       6.74786316       5.20344606       4.30914079
Si       8.22356619       6.57314219       3.22131075
Si       0.87497558       3.30426862       5.80025886
Si       2.47169305       2.51790849       4.34416582
Si       6.62684872       7.35950233       4.67740379
Si       5.64560588       7.16012718       0.89396438
Si       3.45293589       2.71728364       8.12760522
16
Lattice="7.3196147503147 0.27574974026928445 -1.1197239596793311 1.3284800697875703 7.54016586832142 -0.14740794745235894 0.431742997626424 1.9538735077632192 9.799392866864213" Properties=species:S:1:pos:R:3 unique_starting_index=30 config_type=initial n_minim_iter=12 pbc="T T T"
Si       4.19361470       6.88232335       4.64948831
Si       4.88622312       2.88746577       3.88277265
Si       3.17784213       4.08586455       2.71551837
Si       5.90199569       5.68392456       5.81674259
Si       5.29105611       3.69594737       6.88600794
Si       3.78878171       6.07384174       1.64625302
Si       5.02248644       4.69613715      -0.42788524
Si       4.05735137       5.07365196       8.96014620
Si       2.31936005       4.62770219       4.50594123
Si       6.76047776       5.14208693       4.02631973
Si       8.25597630       6.53194361       2.95187117
Si       0.82386151       3.23784551       5.58038979
Si       2.44483809       2.46193840       4.14966399
Si       6.63499972       7.30785072       4.38259697
Si       5.68563187       7.12784058       0.73524635
Si       3.39420595       2.64194854       7.79701461
16
Lattice="7.488578266406783 0.2545002615690383 -1.2963734236421198 1.3242653031588039 7.516058032451279 -0.3196933554218191 0.1424599781066502 1.7145787946718933 9.035507119510848" Properties=species:S:1:pos:R:3 unique_starting_index=30 config_type=initial n_minim_iter=13 pbc="T T T"
Si       4.10336892       6.73352418       4.03430961
Si       4.85193462       2.75161291       3.38513073
Si       3.16862342       3.97958718       2.30950665
Si       5.78668012       5.50554990       5.10993369
Si       5.15283245       3.48585478       6.14410479
Si       3.80247110       5.99928230       1.27533555
Si       5.11256718       4.68483734      -0.65241582
Si       3.84273637       4.80029975       8.07185616
Si       2.20243285       4.50836754       4.03665985
Si       6.75287070       4.97676955       3.38278049
Si       8.28344554       6.40783283       2.32690887
Si       0.67185800       3.07730426       5.09253147
Si       2.35826349       2.31889048       3.71669222
Si       6.59704006       7.16624660       3.70274812
Si       5.73504329       7.05211709       0.35265201
Si       3.22026026       2.43302000       7.06678833
16
Lattice="7.7083668290246115 0.17438899178843742 -1.5366754858710838 1.2525067090710256 7.514695413010497 -0.4830103188803252 -0.27049747299860816 1.4894147060036926 8.244950031598133" Properties=species:S:1:pos:R:3 unique_starting_index=30 config_type=initial n_minim_iter=14 pbc="T T T"
Si       3.91206312       6.58979491       3.38833918
Si       4.77831294       2.58870420       2.83692505
Si       3.11731651       3.87227216       1.87638393
Si       5.57305956       5.30622695       4.34888030
Si       4.93417792       3.25485514       5.33929132
Si       3.75619815       5.92364397       0.88597291
Si       5.19766054       4.65082135      -0.91769415
Si       3.49271552       4.52767776       7.14295837
Si       1.98626294       4.39374505       3.54541442
Si       6.70411312       4.78475406       2.67984980
Si       8.25940017       6.24632821       1.63808367
Si       0.43097589       2.93217090       4.58718056
Si       2.21920369       2.17073626       3.25624195
Si       6.47117238       7.00776285       2.96902228
Si       5.73671505       6.96488649      -0.06401565
Si       2.95366101       2.21361262       6.28927988
16
Lattice="8.107452563136807 0.007457550883686914 -1.7670062311219819 1.0950931119711849 7.623739196918433 -0.6516911556163192 -0.6300360732572966 1.25451567678142 7.482795823194336" Properties=species:S:1:pos:R:3 unique_starting_index=30 config_type=initial n_minim_iter=15 pbc="T T T"
Si       3.74505311       6.49719939       2.76198029
Si       4.82745649       2.38851303       2.30211814
Si       3.12237019       3.78565519       1.44799721
Si       5.45013941       5.10005724       3.61610122
Si       4.85217863       2.98882646       4.55893880
Si       3.72033097       5.89688597       0.50515963
Si       5.35940432       4.63384265      -1.19136866
Si       3.21310528       4.25186977       6.25546709
Si       1.76836153       4.31126826       3.06984928
Si       6.80414807       4.57444416       1.99424915
Si       8.36158897       6.07762538       0.97150645
Si       0.21092064       2.80808705       4.09259199
Si       2.13713301       2.01359390       2.81395767
Si       6.43537659       6.87211852       2.25014076
Si       5.77902656       6.92264034      -0.47344432
Si       2.79348304       1.96307208       5.53754276
16
Lattice="7.998014711786424 -0.12409253214059084 -1.8021403981677833 0.9142739505462347 7.569068699280919 -0.6032586559936355 -0.7762721241878102 1.2814304494326048 6.70400903059455" Properties=species:S:1:pos:R:3 unique_starting_index=30 config_type=initial n_minim_iter=16 pbc="T T T"
Si       3.46665151       6.42493701       2.38062186
Si       4.66936503       2.30146960       1.91798812
Si       3.01022324       3.72333517       1.18563999
Si       5.12579330       5.00307145       3.11296999
Si       4.61264522       2.90712875       3.94934234
Si       3.52337132       5.81927786       0.34926763
Si       5.23280646       4.53539624      -1.22686040
Si       2.90321008       4.19101038       5.52547037
Si       1.55040089       4.28718841       2.71836662
Si       6.58561565       4.43921821       1.58024336
Si       8.04354539       5.92858552       0.64937264
Si       0.09247115       2.79782110       3.64923733
Si       2.00827536       1.96180470       2.46260816
Si       6.12774118       6.76460192       1.83600182
Si       5.51946286       6.80044391      -0.57103858
Si       2.61655368       1.92596271       4.86964856
16
Lattice="8.275850715126523 -0.15346847862113858 -1.941252233325169 0.9143736069653746 7.87568795601657 -0.5994171501254673 -0.9585147745660813 1.3824716911816457 6.935500027646525" Properties=species:S:1:pos:R:3 unique_starting_index=30 config_type=initial n_minim_iter=17 pbc="T T T"
Si       3.46847992       6.70601430       2.45762859
Si       4.76322963       2.39867687       1.93720206
Si       3.05936008       3.88142782       1.20631874
Si       5.17234947       5.22326335       3.18851191
Si       4.64114796       3.04773806       4.04780020
Si       3.59056159       6.05695311       0.34703045
Si       5.40325428       4.70526407      -1.30393540
Si       2.82845527       4.39942710       5.69876605
Si       1.50743745       4.48313648       2.81217670
Si       6.72427210       4.62155469       1.58265395
Si       8.23417244       6.16921386       0.61518211
Si      -0.00246289       2.93547731       3.77964854
Si       1.99981570       2.05420846       2.53209427
Si       6.23189385       7.05048271       1.86273638
Si       5.66027143       7.07081082      -0.61686810
Si       2.57143812       2.03388035       5.01169875
16
Lattice="8.205576563023559 -0.16610499966038256 -1.9321573091139204 0.8890016443473487 7.840758029459616 -0.5843796966092509 -0.9689704923627426 1.3910141132382625 6.855567303668244" Properties=species:S:1:pos:R:3 unique_starting_index=30 config_type=initial n_minim_iter=18 pbc="T T T"
Si       3.41131200       6.68019397       2.43276072
Si       4.71429571       2.38547317       1.90626958
Si       3.02251466       3.86463304       1.18986867
Si       5.10309306       5.20103411       3.14916163
Si       4.57913807       3.03770448       3.99711893
Si       3.54646965       6.02796266       0.34191136
Si       5.35223286       4.67654376      -1.29397397
Si       2.77337486       4.38912338       5.63300427
Si       1.47684765       4.46891268       2.78162288
Si       6.64876006       4.59675447       1.55740742
Si       8.14182235       6.13615947       0.60173318
Si      -0.01621463       2.92950767       3.73729712
Si       1.97102487       2.04694450       2.50140288
Si       6.15458284       7.01872264       1.83762742
Si       5.59187931       7.03326988      -0.61022469
Si       2.53372841       2.03239727       4.94925498
16
Lattice="8.184681887433763 -0.181843347307446 -1.9466263599451819 0.8663241170495923 7.8609003570411575 -0.5737261616028749 -1.008918048250431 1.4103444776259095 6.8203855449627" Properties=species:S:1:pos:R:3 unique_starting_index=30 config_type=initial n_minim_iter=19 pbc="T T T"
Si       3.35839496       6.70180688       2.41976580
Si       4.68369300       2.38759461       1.88026722
Si       2.99561637       3.87478789       1.17679801
Si       5.04647159       5.21461360       3.12323502
Si       4.52555579       3.04864981       3.96577870
Si       3.51653216       6.04075168       0.33425433
Si       5.33242937       4.67933142      -1.29971322
Si       2.70965859       4.41007007       5.59974625
Si       1.44216970       4.48638378       2.76691485
Si       6.59991826       4.60301771       1.53311818
Si       8.08675809       6.14535558       0.58108905
Si      -0.04467014       2.94404590       3.71894397
Si       1.94251635       2.05370103       2.48396808
Si       6.09957160       7.03570046       1.81606494
Si       5.55168721       7.04435927      -0.61506540
Si       2.49040074       2.04504222       4.91509842
16
Lattice="8.174918187845458 -0.19095143393653077 -1.9571281851871192 0.853511997248255 7.874871631227893 -0.5687102262763972 -1.0353417005679537 1.4207848187282888 6.8035782644223" Properties=species:S:1:pos:R:3 unique_starting_index=30 config_type=initial n_minim_iter=20 pbc="T T T"
Si       3.32698934       6.71582154       2.41246883
Si       4.66609914       2.38888347       1.86527102
Si       2.97993226       3.88152130       1.16909962
Si       5.01315622       5.22318372       3.10864023
Si       4.49348177       3.05507917       3.94877803
Si       3.49960672       6.04962584       0.32896182
Si       5.32247789       4.68227337      -1.30488955
Si       2.67061059       4.42243164       5.58262940
Si       1.42116075       4.49723214       2.75916492
Si       6.57192774       4.60747287       1.51857493
Si       8.05603645       6.15212276       0.56772191
Si      -0.06294796       2.95258225       3.71001794
Si       1.92520949       2.05769678       2.47466424
Si       6.06787899       7.04700823       1.80307562
Si       5.52970932       7.05266803      -0.61968541
Si       2.46337916       2.05203698       4.89742526
16
Lattice="8.091208467714988 -0.26726628787505535 -2.0467325824192915 0.7459071366873027 7.988847349055578 -0.5296513603831071 -1.2604966545523941 1.5032988713032558 6.67097407025178" Properties=species:S:1:pos:R:3 unique_starting_index=30 config_type=initial n_minim_iter=21 pbc="T T T"
Si       3.06039276       6.82918536       2.35299217
Si       4.51622619       2.39569457       1.74159795
Si       2.84608311       3.93519677       1.10545146
Si       4.73053584       5.28968316       2.98913867
Si       4.22044605       3.10480354       3.81084793
Si       3.35617290       6.12007639       0.28374220
Si       5.23728014       4.70436916      -1.35094935
Si       2.33933881       4.52051077       5.44553948
Si       1.24321455       4.58407909       2.69625147
Si       6.33340440       4.64080084       1.39833866
Si       7.79524936       6.20488384       0.45548460
Si      -0.21863041       3.01999609       3.63910553
Si       1.77812604       2.08830716       2.39912753
Si       5.79849291       7.13657277       1.69546260
Si       5.34420136       7.11854712      -0.66090032
Si       2.23241759       2.10633281       4.75549045
16
Lattice="8.024197365017569 -0.30676065458912727 -2.107007934788705 0.6870472977178836 8.02421403668679 -0.5281882063810196 -1.4119154210104798 1.5143927989310817 6.631157967220205" Properties=species:S:1:pos:R:3 unique_starting_index=30 config_type=initial n_minim_iter=22 pbc="T T T"
Si       2.88938456       6.85558694       2.31841040
Si       4.40994469       2.37625924       1.67755142
Si       2.75517987       3.94401602       1.06865239
Si       4.54414937       5.28783016       2.92730944
Si       4.03630249       3.10105449       3.74799660
Si       3.26302675       6.13079169       0.24796522
Si       5.17593964       4.70028805      -1.39343407
Si       2.12338960       4.53155813       5.38939590
Si       1.12949717       4.60156280       2.66531774
Si       6.16983207       4.63028338       1.33064409
Si       7.62128115       6.20289210       0.38205729
Si      -0.32195191       3.02895408       3.61390454
Si       1.68037849       2.08475538       2.36434152
Si       5.61895075       7.14709080       1.63162030
Si       5.22842861       7.12548769      -0.70447553
Si       2.07090063       2.10635849       4.70043735
16
Lattice="7.946320034122633 -0.35766992419343036 -2.1853653323480176 0.6123139000285716 8.093533169744811 -0.5378639398887818 -1.6054640027712737 1.5170571486170237 6.601096172697709" Properties=species:S:1:pos:R:3 unique_starting_index=30 config_type=initial n_minim_iter=23 pbc="T T T"
Si       2.67472077       6.90274439       2.27531193
Si       4.27844916       2.35017600       1.60255497
Si       2.64118328       3.96309788       1.02280763
Si       4.31198666       5.28982252       2.85505927
Si       3.80836170       3.09350282       3.67873270
Si       3.14480823       6.15941757       0.19913420
Si       5.10120595       4.70945848      -1.45477641
Si       1.85196398       4.54346191       5.33264331
Si       0.98578691       4.62955923       2.62990905
Si       5.96738302       4.62336116       1.24795785
Si       7.40753493       6.21329095       0.28688168
Si      -0.45436500       3.03962944       3.59098522
Si       1.55926966       2.07851890       2.32538002
Si       5.39390027       7.17440150       1.55248688
Si       5.08811897       7.15317450      -0.76926093
Si       1.86505096       2.09974590       4.64712783
16
Lattice="7.7929464270293645 -0.40233733050758685 -2.251329149883651 0.5353550132597463 8.126782008968634 -0.567544886117183 -1.7989998081435423 1.4796742885550693 6.545357765758224" Properties=species:S:1:pos:R:3 unique_starting_index=30 config_type=initial n_minim_iter=24 pbc="T T T"
Si       2.42766387       6.90659330       2.20811437
Si       4.10163776       2.29752566       1.51836936
Si       2.49993230       3.95771829       0.96389355
Si       4.02936933       5.24640068       2.76259018
Si       3.53553552       3.04981222       3.59049804
Si       2.99376611       6.15430675       0.13598569
Si       4.98107746       4.70053988      -1.52236107
Si       1.54822417       4.50357909       5.24884480
Si       0.82605509       4.62124055       2.57402895
Si       5.70324655       4.58287842       1.15245478
Si       7.12036260       6.18751824       0.17752597
Si      -0.59106096       3.01660073       3.54895776
Si       1.42081112       2.04696775       2.27145633
Si       5.10849051       7.15715122       1.45502740
Si       4.90386707       7.14501853      -0.85071912
Si       1.62543456       2.05910044       4.57720285
16
Lattice="7.809714588036031 -0.43177132997188866 -2.309837991572523 0.500421607732982 8.218641957220159 -0.5977581240388212 -1.9152166025246786 1.4591575300643824 6.590596029560691" Properties=species:S:1:pos:R:3 unique_starting_index=30 config_type=initial n_minim_iter=25 pbc="T T T"
Si       2.33356628       6.96382506       2.19115445
Si       4.06135331       2.28220310       1.49184546
Si       2.45707334       3.98588278       0.94148846
Si       3.93784626       5.26014537       2.74151145
Si       3.44581625       3.04165095       3.58233399
Si       2.94910334       6.20437721       0.10066592
Si       4.97713208       4.73803072      -1.57854316
Si       1.41778751       4.50799744       5.26154307
Si       0.75415538       4.65117538       2.57072078
Si       5.64076421       4.59485278       1.11227914
Si       7.06233784       6.22207979       0.11717798
Si      -0.66741825       3.02394836       3.56582193
Si       1.37079126       2.04157136       2.26673958
Si       5.02412834       7.20445680       1.41626034
Si       4.87013127       7.20316022      -0.91017261
Si       1.52478832       2.04286793       4.59317253
16
Lattice="7.74773041923139 -0.4331736028677731 -2.3066301578480783 0.49035002786946513 8.189062431115017 -0.6096099283877169 -1.930672871029408 1.432670840023632 6.558912834903238" Properties=species:S:1:pos:R:3 unique_starting_index=30 config_type=initial n_minim_iter=26 pbc="T T T"
Si       2.29036569       6.92955560       2.16750699
Si       4.01704188       2.25900407       1.47516576
Si       2.42687710       3.96538357       0.92665939
Si       3.88053048       5.22317610       2.71601336
Si       3.39302973       3.01307792       3.55635223
Si       2.91437784       6.17548175       0.08632052
Si       4.93692854       4.71902169      -1.58602932
Si       1.37047904       4.46953798       5.22870207
Si       0.72989518       4.62333385       2.54960838
Si       5.57751240       4.56522582       1.09306437
Si       6.98903470       6.18914678       0.09787225
Si      -0.68162713       2.99941288       3.54480050
Si       1.34692025       2.02200722       2.24931955
Si       4.96048732       7.16655245       1.39335319
Si       4.82286967       7.17087894      -0.92510696
Si       1.48453791       2.01768073       4.56777971
16
Lattice="7.7280793728657065 -0.4415487749563029 -2.319254540079441 0.477139651333285 8.201186193125222 -0.6245077574915209 -1.9643398508498036 1.4129314646327935 6.559659501115994" Properties=species:S:1:pos:R:3 unique_starting_index=30 config_type=initial n_minim_iter=27 pbc="T T T"
Si       2.25062624       6.92888876       2.15304594
Si       3.99025293       2.24368013       1.46285126
Si       2.40451894       3.96328010       0.91491205
Si       3.83636024       5.20928878       2.70098515
Si       3.35166477       2.99649812       3.54510357
Si       2.88921440       6.17607077       0.07079364
Si       4.92015806       4.72110839      -1.60420947
Si       1.32072112       4.45146050       5.22010667
Si       0.70279704       4.61790608       2.54029584
Si       5.53808213       4.55466281       1.07560137
Si       6.94669580       6.18318662       0.07461229
Si      -0.70581663       2.98938226       3.54128492
Si       1.32602025       2.01092470       2.24162709
Si       4.91485892       7.16164418       1.37427011
Si       4.79603395       7.17244507      -0.94757796
Si       1.44484523       2.00012382       4.56347516
16
Lattice="7.606660676870157 -0.48221545370081115 -2.377584645032576 0.4095132852207732 8.252466799859635 -0.7115330852726575 -2.1309848805847866 1.2921928657434094 6.56043813396489" Properties=species:S:1:pos:R:3 unique_starting_index=30 config_type=initial n_minim_iter=28 pbc="T T T"
Si       2.04219857       6.90910319       2.07128616
Si       3.84299051       2.15334102       1.40003424
Si       2.28400214       3.94261690       0.85109531
Si       3.60118694       5.11982731       2.62022509
Si       3.13279165       2.89518552       3.48550701
Si       2.75239743       6.16725869      -0.01418661
Si       4.82239430       4.72633664      -1.70070529
Si       1.06279478       4.33610758       5.17202569
Si       0.56273166       4.57497533       2.48712019
Si       5.32245742       4.48746888       0.98420022
Si       6.71289479       6.13877080      -0.04801417
Si      -0.82770571       2.92367341       3.51933457
Si       1.21674532       1.94325927       2.19984447
Si       4.66844376       7.11918494       1.27147593
Si       4.64741080       7.16901564      -1.06929283
Si       1.23777828       1.89342857       4.54061324
16
Lattice="7.487821818921821 -0.48354568511341967 -2.3953648640207152 0.3919192611133712 8.312471337166187 -0.8538788655334029 -2.2063122016990584 1.0930748766278517 6.639671228901508" Properties=species:S:1:pos:R:3 unique_starting_index=30 config_type=initial n_minim_iter=29 pbc="T T T"
Si       1.92538790       6.87443547       2.00115296
Si       3.74804098       2.04756506       1.38927454
Si       2.21074659       3.91335907       0.80243474
Si       3.46268229       5.00864146       2.58799276
Si       3.01079545       2.76255303       3.49283768
Si       2.66263343       6.15944750      -0.10241019
Si       4.75872235       4.75889504      -1.80513847
Si       0.91470653       4.16310549       5.19556597
Si       0.49193023       4.50039681       2.45440108
Si       5.18149865       4.42160372       0.93602642
Si       6.55996681       6.10472426      -0.14090486
Si      -0.88653793       2.81727627       3.53133236
Si       1.15763160       1.85039365       2.19365543
Si       4.51579728       7.07160688       1.19677207
Si       4.55750265       7.18576770      -1.20391135
Si       1.11592623       1.73623283       4.59433885
16
Lattice="7.324160592404005 -0.474870907269022 -2.335114848388962 0.3809606333164843 8.20280608200598 -0.8842355466892038 -2.1434663496293553 1.0100067877904382 6.583873394764295" Properties=species:S:1:pos:R:3 unique_starting_index=30 config_type=initial n_minim_iter=30 pbc="T T T"
Si       1.88377322       6.76008706       1.97059214
Si       3.67788166       1.97785490       1.39393086
Si       2.16832023       3.84162867       0.79078437
Si       3.39333465       4.89631329       2.57373863
Si       2.96245093       2.68034695       3.47560613
Si       2.59920395       6.05759501      -0.11108313
Si       4.66160367       4.69423321      -1.79151078
Si       0.90005120       4.04370875       5.15603378
Si       0.48652964       4.40150991       2.42398122
Si       5.07512524       4.33643205       0.94054178
Si       6.42307719       5.99833774      -0.13007678
Si      -0.86142231       2.73960422       3.49459978
Si       1.13931588       1.79041303       2.17639357
Si       4.42233899       6.94752893       1.18812943
Si       4.45627317       7.08056427      -1.20422021
Si       1.10538170       1.65737769       4.56874321
16
Lattice="7.402831798061657 -0.4841699573009243 -2.3700077163510067 0.379749667983964 8.298244316280684 -0.9010363105035852 -2.1867083893957306 1.0122335806761422 6.657545069892746" Properties=species:S:1:pos:R:3 unique_starting_index=30 config_type=initial n_minim_iter=31 pbc="T T T"
Si       1.88712993       6.83546625       1.98444905
Si       3.70874315       1.99084169       1.40205200
Si       2.18296428       3.88171547       0.79288936
Si       3.41290880       4.94459247       2.59361168
Si       2.97912105       2.70304158       3.50653098
Si       2.61675203       6.12326636      -0.12002994
Si       4.71047806       4.74544106      -1.82228563
Si       0.88539501       4.08086688       5.20878668
Si       0.47865914       4.44641520       2.44638959
Si       5.11721394       4.37989274       0.94011145
Si       6.48068348       6.06133546      -0.14570990
Si      -0.88481040       2.76497248       3.53221094
Si       1.14179007       1.80414674       2.19623231
Si       4.45408300       7.02216120       1.19026873
Si       4.49644093       7.15990553      -1.22983644
Si       1.09943215       1.66640241       4.61633748
16
Lattice="7.39108816135562 -0.48398598814243554 -2.3677692184698427 0.3784094474992762 8.295059139434807 -0.9054183023600223 -2.1863535783073513 1.0043596099230543 6.655972338562921" Properties=species:S:1:pos:R:3 unique_starting_index=30 config_type=initial n_minim_iter=32 pbc="T T T"
Si       1.88086111       6.83128735       1.98109688
Si       3.70228292       1.98414541       1.40168793
Si       2.17881790       3.87774997       0.79063886
Si       3.40432613       4.93768279       2.59214595
Si       2.97303043       2.69745755       3.50503282
Si       2.61011360       6.11797522      -0.12224800
Si       4.70407657       4.74289576      -1.82427655
Si       0.87906746       4.07253700       5.20706137
Si       0.47590827       4.43982370       2.44408574
Si       5.10723576       4.37560906       0.93869908
Si       6.46900738       6.05605761      -0.14773288
Si      -0.88586335       2.75937516       3.53051769
Si       1.13837881       1.79903927       2.19485271
Si       4.44476522       7.01639349       1.18793211
Si       4.48762685       7.15600755      -1.23279997
Si       1.09551718       1.65942522       4.61558479
16
Lattice="7.3808849352002115 -0.48421665365242517 -2.3669958458191465 0.37675176853770476 8.296875698438825 -0.9116854682165608 -2.1884249912957534 0.9950176678242942 6.658914974266663" Properties=species:S:1:pos:R:3 unique_starting_index=30 config_type=initial n_minim_iter=33 pbc="T T T"
Si       1.87321909       6.83103685       1.97817874
Si       3.69599262       1.97663986       1.40205492
Si       2.17452953       3.87532284       0.78818640
Si       3.39468219       4.93235388       2.59204726
Si       2.96641890       2.69229770       3.50547185
Si       2.60279281       6.11537901      -0.12523819
Si       4.69896903       4.74284840      -1.82844661
Si       0.87024269       4.06482831       5.20868027
Si       0.47207366       4.43442922       2.44291218
Si       5.09713805       4.37324749       0.93732148
Si       6.45778146       6.05354713      -0.15079455
Si      -0.88856975       2.75412958       3.53102821
Si       1.13422459       1.79362300       2.19458090
Si       4.43498712       7.01405371       1.18565276
Si       4.47888065       7.15608149      -1.23772133
Si       1.09033107       1.65159523       4.61795500
16
Lattice="7.26479624856573 -0.4848533638655638 -2.358378873041742 0.3604020257316008 8.31651742113262 -0.9782363749960986 -2.211722946455231 0.8963800744747777 6.698482026220836" Properties=species:S:1:pos:R:3 unique_starting_index=30 config_type=initial n_minim_iter=34 pbc="T T T"
Si       1.78837467       6.83419746       1.95129663
Si       3.62510066       1.89384668       1.41057014
Si       2.12738394       3.84956850       0.76373049
Si       3.28609139       4.87847563       2.59813629
Si       2.89249335       2.64162959       3.51594240
Si       2.52098197       6.08641454      -0.15407562
Si       4.64259171       4.74254841      -1.87313293
Si       0.77088361       3.98549572       5.23499971
Si       0.43039342       4.37568257       2.43495902
Si       4.98308191       4.35236157       0.92690776
Si       6.33247402       6.02945376      -0.18010270
Si      -0.91899869       2.69859037       3.54196948
Si       1.08730744       1.73527453       2.19495460
Si       4.32616789       6.99276960       1.16691218
Si       4.38070513       7.15859429      -1.28853584
Si       1.03277020       1.56944984       4.65040262
