8
Lattice="5.183645332706859 -0.41099210995109575 -0.32466605594391823 1.1696261632464897 5.066662420961649 -0.3246660559439146 1.1696261632464828 0.8571007561499923 5.004183692639016" Properties=species:S:1:pos:R:3 unique_starting_index=42 config_type=initial n_minim_iter=1 energy=-1289.8491138316654 free_energy=-1289.8491138316654 pbc="T T T"
Si       5.11548559       4.84608744       0.74225261
Si       6.16197142       1.51337038       3.15333372
Si       3.29931019       4.32238103       4.54260605
Si       5.50680316       5.06716823       2.34446855
Si       6.49066348       3.14302611       3.08063014
Si       4.95228073       4.21056176       4.38676338
Si       4.91449667       3.60133772       2.84490161
Si       1.18874926       0.87111415       0.68814264
8
Lattice="5.175788683710096 -0.4144087555377637 -0.3273650587235907 1.164001482267871 5.060199962883489 -0.3273650587235878 1.1640014822678642 0.8529789961625999 4.998521619253498" Properties=species:S:1:pos:R:3 unique_starting_index=42 config_type=initial n_minim_iter=2 stress="-0.02418409749301782 -0.003881577585516763 -0.0030662790234049038 -0.003881577585516763 -0.021731592590819613 -0.00224696587003307 -0.0030662790234049038 -0.00224696587003307 -0.020662183046658088" pbc="T T T"
Si       5.10357835       4.83697124       0.73822346
Si       6.14969173       1.50745792       3.14589238
Si       3.28997323       4.31284343       4.53467026
Si       5.49269791       5.05797540       2.33299463
Si       6.47764860       3.12939125       3.07289576
Si       4.93535862       4.20111534       4.38047652
Si       4.89961137       3.59042979       2.83628481
Si       1.18563185       0.86882971       0.68633803
8
Lattice="5.179397915726174 -0.4142691852937186 -0.3272548042453092 1.1652218181165424 5.063599494618202 -0.32725480424530407 1.1652218181165372 0.8538732569200284 5.001803275811248" Properties=species:S:1:pos:R:3 unique_starting_index=42 config_type=initial n_minim_iter=3 stress="0.012723364529830746 -0.0014470528613690092 -0.0011431094025088767 -0.0014470528613690092 0.013637658823298197 -0.0008376693032527868 -0.0011431094025088767 -0.0008376693032527868 0.014036334904605593" pbc="T T T"
Si       5.10759369       4.84084106       0.73893229
Si       6.15459138       1.50876401       3.14831901
Si       3.29269462       4.31619465       4.53827086
Si       5.49733759       5.06256765       2.33458053
Si       6.48342519       3.13163802       3.07548680
Si       4.93924117       4.20475449       4.38457688
Si       4.90298420       3.59290139       2.83823727
Si       1.18658561       0.86952863       0.68689014
8
Lattice="4.969755017672034 -0.09298617765731113 -0.07345507328819349 1.408427541073624 4.76691128787362 -0.07345507328810395 1.4084275410736842 1.0320941411621425 4.654419465199428" Properties=species:S:1:pos:R:3 unique_starting_index=42 config_type=initial n_minim_iter=4 stress="-0.6125926085215535 -0.0953816010482172 -0.07534735454076401 -0.0953816010482172 -0.5523274614257033 -0.05521445790126257 -0.07534735454076401 -0.05521445790126257 -0.526048972268134" pbc="T T T"
Si       5.22228302       4.93133706       0.90504872
Si       6.27543279       1.68937429       3.18973291
Si       3.50131759       4.37056372       4.58785202
Si       5.72732165       5.21486852       2.43977684
Si       6.69793203       3.27412418       3.21984398
Si       5.13972683       4.38260556       4.50838713
Si       5.15418095       3.77697809       2.98364993
Si       1.23066320       0.90182863       0.71240576
8
Lattice="4.944642600399818 -0.02489357120380632 -0.019664848510334194 1.46579221930793 4.722453102508505 -0.019664848510229666 1.4657922193080013 1.0741309137959292 4.598716428709959" Properties=species:S:1:pos:R:3 unique_starting_index=42 config_type=initial n_minim_iter=5 stress="-0.6667717543457148 -0.089210084571148 -0.07047212247355669 -0.089210084571148 -0.6104059688060544 -0.0516418932455518 -0.07047212247355669 -0.0516418932455518 -0.5858277879579068" pbc="T T T"
Si       5.26682524       4.96149524       0.95502933
Si       6.31760801       1.74572662       3.21064350
Si       3.56775716       4.39628649       4.60562028
Si       5.79986260       5.26155322       2.47889799
Si       6.76430045       3.32494022       3.26439820
Si       5.20817526       4.43705638       4.54474695
Si       5.22679649       3.83019068       3.02568558
Si       1.24579949       0.91292049       0.72116785
8
Lattice="4.951484925331505 0.024262443823516184 0.019166285076959087 1.5147260291554518 4.714169777231648 0.019166285077082897 1.5147260291555378 1.1099895554196695 4.581668606731281" Properties=species:S:1:pos:R:3 unique_starting_index=42 config_type=initial n_minim_iter=6 stress="-0.380147625979585 0.009088401268409319 0.007179445354876381 0.009088401268409319 -0.38588996866830133 0.0052610895991897005 0.007179445354876381 0.0052610895991897005 -0.38839390497804194" pbc="T T T"
Si       5.31478559       5.01234900       0.99160087
Si       6.38054714       1.78834542       3.23176414
Si       3.62735608       4.42775497       4.64662614
Si       5.88157959       5.32440489       2.50711046
Si       6.84884905       3.36604207       3.31525206
Si       5.27283736       4.50232642       4.59935993
Si       5.32479599       3.90200461       3.08241549
Si       1.27013619       0.93075440       0.73525587
8
Lattice="4.916147158893482 0.06624117135112424 0.05232767083086953 1.5441095748378975 4.667827803333388 0.05232767083108509 1.5441095748380542 1.131521785130452 4.52890859219763" Properties=species:S:1:pos:R:3 unique_starting_index=42 config_type=initial n_minim_iter=7 stress="0.3074974014624913 0.24511501616794718 0.19363030001067566 0.24511501616794718 0.15262589225556566 0.14189206925062128 0.19363030001067566 0.14189206925062128 0.08509450020606239" pbc="T T T"
Si       5.25489612       5.09225665       0.91190340
Si       6.43870175       1.69201983       3.17124067
Si       3.55302356       4.38843082       4.74281323
Si       5.89098280       5.39116280       2.40523167
Si       6.91533855       3.26435108       3.32799622
Si       5.19589949       4.53649361       4.68788954
Si       5.45196507       3.99519396       3.15603107
Si       1.33727383       0.97995278       0.77412047
8
Lattice="4.915508182604743 0.06569239539415167 0.05189416147330474 1.5433938047116176 4.667383822618883 0.05189416147352593 1.5433938047117797 1.1309972695751884 4.528577031237567" Properties=species:S:1:pos:R:3 unique_starting_index=42 config_type=initial n_minim_iter=8 stress="0.5368471871172736 0.14000425392156854 0.11059732738333036 0.14000425392156854 0.44838802031588837 0.08104559893400264 0.11059732738333036 0.08104559893400264 0.40981558886023073" pbc="T T T"
Si       5.24963343       5.09832433       0.90224582
Si       6.44290224       1.68103973       3.16681635
Si       3.54381887       4.38581967       4.75095183
Si       5.88718508       5.39486124       2.39481952
Si       6.91772116       3.25312551       3.32579987
Si       5.18591311       4.53566574       4.69389795
Si       5.45858843       4.00004756       3.15986519
Si       1.34196207       0.98338832       0.77683440
8
Lattice="4.927722890538328 0.10991681547322527 0.08682954756912172 1.589243484397056 4.665708921435254 0.08682954756935518 1.5892434843972283 1.164595864034245 4.518859987138945" Properties=species:S:1:pos:R:3 unique_starting_index=42 config_type=initial n_minim_iter=9 stress="-0.24127075210307738 -0.06067025031847232 -0.04792688328285699 -0.06067025031847232 -0.20293734692620902 -0.0351207669524645 -0.04792688328285699 -0.0351207669524645 -0.18622214716176175" pbc="T T T"
Si       5.30715768       5.15770552       0.93959447
Si       6.51685373       1.72593106       3.19412995
Si       3.60890213       4.42558537       4.80007357
Si       5.94672112       5.45404693       2.42749771
Si       6.99209227       3.29393100       3.35611822
Si       5.24722673       4.57873212       4.74391073
Si       5.54262187       4.06162717       3.20851043
Si       1.38593016       1.01560809       0.80228662
8
Lattice="4.893239419164275 0.1513056102722694 0.11952491188954649 1.618321849657635 4.620359270866661 0.11952491188979908 1.6183218496578229 1.1859044578701274 4.4671732240029485" Properties=species:S:1:pos:R:3 unique_starting_index=42 config_type=initial n_minim_iter=10 stress="0.14147613777695325 0.001136763449406351 0.0008979941390654161 0.001136763449406351 0.14075789425519783 0.0006580491112025071 0.0008979941390654161 0.0006580491112025071 0.1404447057015165" pbc="T T T"
Si       5.27734225       5.17446520       0.95627332
Si       6.52385325       1.73440630       3.15769909
Si       3.61909222       4.39109827       4.81251676
Si       5.93871360       5.48424801       2.43270747
Si       7.01847825       3.29512541       3.33863335
Si       5.25631420       4.56746364       4.77208530
Si       5.57896203       4.08825719       3.22954701
Si       1.45316423       1.06487714       0.84120705
8
Lattice="4.895381223501672 0.12920305027971435 0.10206484196292426 1.5978911968839156 4.629059782994275 0.10206484196314491 1.5978911968840803 1.1709328981605014 4.479679436578567" Properties=species:S:1:pos:R:3 unique_starting_index=42 config_type=initial n_minim_iter=11 stress="-0.14632167663966444 -0.07812484764832271 -0.061715263000867444 -0.07812484764832271 -0.09695989844505283 -0.045224876327961204 -0.061715263000867444 -0.045224876327961204 -0.07543580009171796" pbc="T T T"
Si       5.25132656       5.14499064       0.98979632
Si       6.48791084       1.76333119       3.13444286
Si       3.63584616       4.35852238       4.77608222
Si       5.89460091       5.46006655       2.47226100
Si       6.98213151       3.32555297       3.29564228
Si       5.27437921       4.51549497       4.73940398
Si       5.49659452       4.02789837       3.18186614
Si       1.44945423       1.06215845       0.83905941
8
Lattice="4.897749091945194 0.14456303208581106 0.11419856568076303 1.613250976272311 4.626690601872146 0.1141985656809767 1.6132509762724707 1.1821885274733341 4.47456562398693" Properties=species:S:1:pos:R:3 unique_starting_index=42 config_type=initial n_minim_iter=12 stress="0.3624149526425824 0.027619396444643667 0.021818132987192637 0.027619396444643667 0.34496413433246864 0.015988303673266424 0.021818132987192637 0.015988303673266424 0.3373547421458388" pbc="T T T"
Si       5.27044812       5.15267823       1.02605464
Si       6.50100154       1.80228946       3.14153405
Si       3.67693820       4.36559382       4.77516707
Si       5.91016501       5.48342761       2.50791304
Si       7.00909595       3.36204311       3.29498054
Si       5.31729710       4.51825883       4.75387687
Si       5.50952334       4.03737260       3.18935037
Si       1.44327898       1.05763324       0.83548468
8
Lattice="4.871522851283821 0.16749945341043668 0.13231735012608847 1.6272215344613326 4.594773230014547 0.13231735012630433 1.6272215344614926 1.192426137030913 4.439320761572404" Properties=species:S:1:pos:R:3 unique_starting_index=42 config_type=initial n_minim_iter=13 stress="0.3121780026240474 0.13392104947469086 0.10579185801512338 0.13392104947469086 0.22756239900760203 0.07752415630728228 0.10579185801512338 0.07752415630728228 0.19066594510364432" pbc="T T T"
Si       5.26399013       5.14973881       1.04562706
Si       6.49625324       1.82010958       3.13187368
Si       3.69250016       4.35390496       4.76777643
Si       5.89863533       5.50044391       2.52548965
Si       7.02184860       3.37541038       3.27522930
Si       5.33388506       4.50092708       4.76636188
Si       5.51901827       4.04433047       3.19484679
Si       1.42019531       1.04071755       0.82212202
8
Lattice="4.8534259054337525 0.20181950418378983 0.15942871128021582 1.6544958073933926 4.567178314355797 0.15942871128042554 1.6544958073935507 1.2124126940079072 4.406199124927329" Properties=species:S:1:pos:R:3 unique_starting_index=42 config_type=initial n_minim_iter=14 stress="0.4602662986016789 -0.11985467608572888 -0.09468002919898634 -0.11985467608572888 0.5359943174663148 -0.06938142046364604 -0.09468002919898634 -0.06938142046364604 0.5690153589637788" pbc="T T T"
Si       5.27817918       5.17652313       1.09661418
Si       6.52606770       1.87097593       3.12538306
Si       3.74998501       4.35062485       4.78202946
Si       5.88900198       5.54961538       2.57973105
Si       7.06583399       3.42262259       3.23932587
Si       5.39215437       4.47241623       4.80164053
Si       5.54722131       4.06499763       3.21117296
Si       1.38021454       1.01141969       0.79897797
8
Lattice="4.868092301655658 0.2379366660411612 0.187959712747651 1.6933533763012707 4.5702834548258275 0.1879597127478642 1.6933533763014326 1.2408874774384069 4.402614902465004" Properties=species:S:1:pos:R:3 unique_starting_index=42 config_type=initial n_minim_iter=15 stress="0.21436066850788535 -0.14867123040847305 -0.11744386531994819 -0.14867123040847305 0.30829590832461673 -0.08606273434423459 -0.11744386531994819 -0.08606273434423459 0.3492561697763462" pbc="T T T"
Si       5.33179092       5.23404197       1.13935560
Si       6.59706474       1.92037973       3.14836457
Si       3.81848113       4.38520925       4.82809100
Si       5.93689197       5.61403320       2.62259802
Si       7.14168591       3.47040433       3.25494878
Si       5.46056627       4.50102677       4.85438456
Si       5.62860060       4.12463228       3.25828176
Si       1.37567177       1.00809075       0.79634825
8
Lattice="4.857036980604046 0.24850772513159958 0.1963103938895608 1.7001030719548615 4.556557238215568 0.19631039388977575 1.7001030719550259 1.245833646932783 4.3873283624608534" Properties=species:S:1:pos:R:3 unique_starting_index=42 config_type=initial n_minim_iter=16 stress="0.16534570879285973 0.018733284358756003 0.014798487369823041 0.018733284358756003 0.15350942038763415 0.010844315145179565 0.014798487369823041 0.010844315145179565 0.14834823202307873" pbc="T T T"
Si       5.32555309       5.23386047       1.14187054
Si       6.59501258       1.92146201       3.14204906
Si       3.81889494       4.37853681       4.82733221
Si       5.92900817       5.62395692       2.62382939
Si       7.14877373       3.46916985       3.24444213
Si       5.46152427       4.49245626       4.86375363
Si       5.64226040       4.13464217       3.26618914
Si       1.38195145       1.01269249       0.79998343
8
Lattice="4.835357928769285 0.25523723590267106 0.20162641740334 1.6999893627904819 4.533858016336869 0.20162641740354964 1.699989362790644 1.2457503209831473 4.364015107932936" Properties=species:S:1:pos:R:3 unique_starting_index=42 config_type=initial n_minim_iter=17 stress="0.4568036875650668 0.0327161299779013 0.025844332845259405 0.0327161299779013 0.43613258994139653 0.018938698468083128 0.025844332845259405 0.018938698468083128 0.4271190018168357" pbc="T T T"
Si       5.30354970       5.22245347       1.14477139
Si       6.57750714       1.92022233       3.12430910
Si       3.81243949       4.35750092       4.81556354
Si       5.89476487       5.62777609       2.62796620
Si       7.14210000       3.46536876       3.21059961
Si       5.45588935       4.45832496       4.86651136
Si       5.63519964       4.12946805       3.26210181
Si       1.37195161       1.00536463       0.79419473
8
Lattice="4.802309441468941 0.21924947882709017 0.1731976401370765 1.6557177467440767 4.513185687372507 0.1731976401372672 1.6557177467442254 1.2133081298098303 4.350485703158907" Properties=species:S:1:pos:R:3 unique_starting_index=42 config_type=initial n_minim_iter=18 stress="0.024860580563090366 0.009780264031870088 0.007725987125206645 0.009780264031870088 0.018681096832098152 0.005661594804729772 0.007725987125206645 0.005661594804729772 0.01598654611091715" pbc="T T T"
Si       5.22973782       5.15808746       1.09345816
Si       6.49389588       1.85849792       3.08658005
Si       3.72839515       4.30664424       4.76482524
Si       5.79922507       5.56864928       2.58325914
Si       7.05693924       3.40490927       3.14965005
Si       5.37258441       4.38444832       4.81934059
Si       5.55083785       4.06764783       3.21326650
Si       1.35358095       0.99190263       0.78356033
8
Lattice="4.805877919564195 0.21246921099169622 0.16784152072977582 1.6503274079732844 4.518630897723988 0.16784152072995406 1.650327407973424 1.2093580955326164 4.357022947233137" Properties=species:S:1:pos:R:3 unique_starting_index=42 config_type=initial n_minim_iter=19 stress="0.43805399424105884 0.12893735489799252 0.10185495406295858 0.12893735489799252 0.35658724829506105 0.07463919745515533 0.10185495406295858 0.07463919745515533 0.32106384708294683" pbc="T T T"
Si       5.23033849       5.15050454       1.09370236
Si       6.48684615       1.85939691       3.08930296
Si       3.72712871       4.30767427       4.75739179
Si       5.78398749       5.57010002       2.58794479
Si       7.05373241       3.40600278       3.13400511
Si       5.37266109       4.36844421       4.81966718
Si       5.54602852       4.06412355       3.21048247
Si       1.34839786       0.98810446       0.78055994
8
Lattice="4.821414062221999 0.21730721926302934 0.17166333877945 1.6596208054168504 4.531987948920759 0.17166333877960713 1.6596208054169752 1.2161682868795491 4.369132381724319" Properties=species:S:1:pos:R:3 unique_starting_index=42 config_type=initial n_minim_iter=20 stress="0.5492800310276672 0.11778428965586613 0.09304451314141393 0.11778428965586613 0.47486014852409947 0.0681829161120471 0.09304451314141393 0.0681829161120471 0.44240951712072163" pbc="T T T"
Si       5.25547693       5.16895719       1.11877248
Si       6.51201437       1.88804841       3.10141099
Si       3.76203100       4.32301114       4.76953935
Si       5.78391927       5.59593757       2.62008901
Si       7.07834920       3.43545685       3.11892846
Si       5.40816255       4.35715720       4.83736135
Si       5.56522723       4.07819235       3.22159621
Si       1.35462413       0.99266706       0.78416420
8
Lattice="4.828825656870373 0.21879606715370195 0.17283946445405032 1.663273170080418 4.5386067581518565 0.17283946445418932 1.6632731700805286 1.218844735657161 4.37529910931527" Properties=species:S:1:pos:R:3 unique_starting_index=42 config_type=initial n_minim_iter=21 stress="0.23020452909675015 0.06115107569753565 0.04830671461443171 0.06115107569753565 0.19156732304194002 0.03539910693380234 0.04830671461443171 0.03539910693380234 0.17471965156672004" pbc="T T T"
Si       5.26823843       5.17845232       1.13392569
Si       6.52491272       1.90494489       3.10695849
Si       3.78202811       4.33007690       4.77526852
Si       5.78146944       5.60625090       2.63957754
Si       7.08744547       3.45315593       3.10912183
Si       5.42777964       4.34839067       4.84288286
Si       5.56932320       4.08119387       3.22396729
Si       1.35221917       0.99090472       0.78277202
