10
Lattice="3.485726344003274 -7.885175672631591e-25 8.231286346087804e-28 1.2330744310469183e-24 5.450938432554627 1.4512368071559362e-15 -2.1626244960913395e-27 -2.4382245769859088e-15 9.158127735154428" Properties=species:S:1:pos:R:3 unique_starting_index=72 config_type=initial n_minim_iter=1 energy=-1625.941203352174 free_energy=-1625.941203352174 pbc="T T T"
Si       3.09502096       4.95978817       3.35213754
Si       3.09502096       0.49115026       5.80599020
Si       1.35215779       2.23431895       1.22692633
Si       1.35215779       3.21661948       7.93120141
Si       0.50560588       1.68594071       3.39877534
Si       0.50560588       3.76499773       5.75935240
Si       2.24846905       4.41140992       1.18028853
Si       2.24846905       1.03952851       7.97783921
Si       0.49061881      -0.00000000       0.00000000
Si       2.23348198       2.72546922       4.57906387
10
Lattice="3.553492538428347 -8.131559857371473e-25 7.736101718621345e-28 1.2102220671705589e-24 5.414283758829906 1.441280493546134e-15 -2.3794873210866756e-27 -2.488972705660603e-15 9.347475384346343" Properties=species:S:1:pos:R:3 unique_starting_index=72 config_type=initial n_minim_iter=2 stress="0.015552288768705527 5.2516709481789754e-17 4.9955742199680134e-17 5.2516709481789754e-17 0.024064168134979386 9.09794478523723e-17 4.9955742199680134e-17 9.09794478523723e-17 0.0005557586942374649" pbc="T T T"
Si       3.13702492       4.89085677       3.40085918
Si       3.13702492       0.52342699       5.94661620
Si       1.36027865       2.18371489       1.27287851
Si       1.36027865       3.23056887       8.07459687
Si       0.52566929       1.70932207       3.45485274
Si       0.52566929       3.70496169       5.89262265
Si       2.30241556       4.41646395       1.21888495
Si       2.30241556       0.99781981       8.12859043
Si       0.51602218      -0.00000000       0.00000000
Si       2.29276844       2.70714188       4.67373769
10
Lattice="3.5605039299337347 -1.3135468722545715e-24 1.814614510485569e-27 1.7706677762769843e-25 4.516544695509384 1.2639256573679127e-15 -3.553695125039289e-31 -2.6526108407588875e-15 10.328934110280258" Properties=species:S:1:pos:R:3 unique_starting_index=72 config_type=initial n_minim_iter=3 stress="-0.01929021644393951 -1.2604576379896836e-16 -1.9715733938165083e-16 -1.2604576379896836e-16 0.024555501945500446 2.2343384461969747e-16 -1.9715733938165083e-16 2.2343384461969747e-16 -0.03545254042739427" pbc="T T T"
Si       3.04707055       3.92210416       3.63199656
Si       3.04707055       0.59444054       6.69693755
Si       1.26681858       1.66383181       1.53247050
Si       1.26681858       2.85271289       8.79646361
Si       0.57595956       1.57793952       3.73463069
Si       0.57595956       2.93860518       6.59430342
Si       2.35621153       3.83621187       1.42983637
Si       2.35621153       0.68033283       8.89909774
Si       0.61082225      -0.00000000       0.00000000
Si       2.39107422       2.25827235       5.16446706
10
Lattice="3.5820942249123253 -1.3463387800981107e-24 1.8612912847973928e-27 5.934583489872217e-26 4.3624380651047145 1.2353775438352165e-15 -5.0771391656852806e-33 -2.7079642049086203e-15 10.593844181445315" Properties=species:S:1:pos:R:3 unique_starting_index=72 config_type=initial n_minim_iter=4 stress="-0.021256109796574222 9.995176770515658e-17 -3.40481502559271e-17 9.995176770515658e-17 0.006280279474871444 2.9498791347359257e-16 -3.40481502559271e-17 2.9498791347359257e-16 -0.0263993426029149" pbc="T T T"
Si       3.05017285       3.76276059       3.70321840
Si       3.05017285       0.59967747       6.89062579
Si       1.25912573       1.58154156       1.59370370
Si       1.25912573       2.78089651       9.00014049
Si       0.58794623       1.54867245       3.81586291
Si       0.58794623       2.81376561       6.77798127
Si       2.37899334       3.72989148       1.48105918
Si       2.37899334       0.63254658       9.11278500
Si       0.62828713      -0.00000000       0.00000000
Si       2.41933425       2.18121903       5.29692209
10
Lattice="3.636590483477758 -1.3645900324496987e-24 1.9027052724292244e-27 1.8876201319254977e-26 4.334769643010651 1.2436536268163964e-15 1.4762755509121449e-33 -2.747804330702952e-15 10.829544218303552" Properties=species:S:1:pos:R:3 unique_starting_index=72 config_type=initial n_minim_iter=5 stress="-0.013661783805237792 1.4595786207511343e-16 -2.5913839727852763e-17 1.4595786207511343e-16 0.01736047531995667 9.161647094033401e-17 -2.5913839727852763e-17 9.161647094033401e-17 0.016098625929949168" pbc="T T T"
Si       3.10546524       3.74769794       3.78998228
Si       3.10546524       0.58707170       7.03956193
Si       1.28716999       1.58031312       1.62478982
Si       1.28716999       2.75445652       9.20475439
Si       0.59837440       1.53101105       3.90670983
Si       0.59837440       2.80375859       6.92283439
Si       2.41666964       3.69839587       1.50806228
Si       2.41666964       0.63637377       9.32148194
Si       0.61710167      -0.00000000       0.00000000
Si       2.43539691       2.16738482       5.41477211
10
Lattice="3.93947144118128 -1.3010251747540565e-24 1.907537971421338e-27 1.0452479390007207e-27 4.093653377701791 1.2353183728098847e-15 -8.973894794587911e-35 -2.669647010054819e-15 10.857053611507247" Properties=species:S:1:pos:R:3 unique_starting_index=72 config_type=initial n_minim_iter=6 stress="-0.015832747005205428 1.6391163094585735e-16 7.238505655767507e-17 1.6391163094585735e-16 -0.030542295600603123 1.1064827698279347e-16 7.238505655767507e-17 1.1064827698279347e-16 0.014560241494815667" pbc="T T T"
Si       3.39167475       3.55908489       3.79949956
Si       3.39167475       0.53456849       7.05755405
Si       1.42193903       1.51225820       1.62902725
Si       1.42193903       2.58139518       9.22802636
Si       0.66372737       1.42886824       3.92715057
Si       0.66372737       2.66478514       6.92990304
Si       2.63346309       3.47569493       1.50137624
Si       2.63346309       0.61795845       9.35567737
Si       0.58233716      -0.00000000       0.00000000
Si       2.55207288       2.04682669       5.42852681
10
Lattice="4.247793292577025 -1.2750502419968182e-24 1.901824819761586e-27 2.711947561677105e-29 4.009722150133732 1.3024355659726313e-15 7.950352047065127e-43 -2.5147059365990054e-15 10.824536114488112" Properties=species:S:1:pos:R:3 unique_starting_index=72 config_type=initial n_minim_iter=7 stress="0.005976355455703858 2.0934076344293377e-16 -2.1603055996459243e-17 2.0934076344293377e-16 -0.007369805236333003 1.0839163984280629e-16 -2.1603055996459243e-17 1.0839163984280629e-16 0.014506595156785726" pbc="T T T"
Si       3.67407614       3.48907399       3.76897080
Si       3.67407614       0.52064816       7.05556531
Si       1.55017950       1.48421291       1.64329725
Si       1.55017950       2.52550924       9.18123886
Si       0.74746612       1.39864620       3.91600440
Si       0.74746612       2.61107595       6.90853171
Si       2.87136276       3.40350728       1.49626365
Si       2.87136276       0.60621487       9.32827246
Si       0.53042365      -0.00000000       0.00000000
Si       2.65432030       2.00486108       5.41226806
10
Lattice="4.438703639330687 -1.241019859187273e-24 1.908241523352232e-27 3.2577692437565915e-31 3.9026487814466684 1.448110999302886e-15 1.531197546033517e-48 -2.243463993166289e-15 10.861057795681708" Properties=species:S:1:pos:R:3 unique_starting_index=72 config_type=initial n_minim_iter=8 stress="0.017975566568169208 6.68191234835944e-17 -1.952848123889969e-17 6.68191234835944e-17 0.011143392325612888 1.3867250133755482e-16 -1.952848123889969e-17 1.3867250133755482e-16 0.01796558658826116" pbc="T T T"
Si       3.84285470       3.37911759       3.75909120
Si       3.84285470       0.52353119       7.10196660
Si       1.62350288       1.42779320       1.67143770
Si       1.62350288       2.47485558       9.18962010
Si       0.82834255       1.37729971       3.91990843
Si       0.82834255       2.52534907       6.94114936
Si       3.04769437       3.32862410       1.51062047
Si       3.04769437       0.57402468       9.35043733
Si       0.45239117      -0.00000000       0.00000000
Si       2.67174299       1.95132439       5.43052890
10
Lattice="4.495237833758688 -1.2269463750288893e-24 1.8808219305336062e-27 2.5070140359359596e-33 3.85839108358292 1.7311481226320668e-15 1.2442191000928814e-50 -1.704012306931118e-15 10.704994855696553" Properties=species:S:1:pos:R:3 unique_starting_index=72 config_type=initial n_minim_iter=9 stress="0.008982548871630231 8.297256534341899e-17 -3.509087491630006e-17 8.297256534341899e-17 0.017236667820061367 1.2198179355613863e-16 -3.509087491630006e-17 1.2198179355613863e-16 0.0005521484296871343" pbc="T T T"
Si       3.91014964       3.33294299       3.70959728
Si       3.91014964       0.52544810       6.99539758
Si       1.66253073       1.40374744       1.64290015
Si       1.66253073       2.45464364       9.06209470
Si       0.87212751       1.36688342       3.85704503
Si       0.87212751       2.49150766       6.84794983
Si       3.11974642       3.29607896       1.49545240
Si       3.11974642       0.56231212       9.20954246
Si       0.35498408      -0.00000000       0.00000000
Si       2.60260299       1.92919554       5.35249743
10
Lattice="4.406511840810656 -1.2229432638253969e-24 1.8792425442792954e-27 1.245133863475689e-34 3.8458024533254296 1.989497455714275e-15 3.045511612757481e-52 -1.2643559085387817e-15 10.69600552956621" Properties=species:S:1:pos:R:3 unique_starting_index=72 config_type=initial n_minim_iter=10 stress="-0.008903029560760115 6.761913707215396e-17 -1.414302749490258e-16 6.761913707215396e-17 0.001476128980398679 1.871190104075797e-16 -1.414302749490258e-16 1.871190104075797e-16 -0.011201201805098544" pbc="T T T"
Si       3.82987586       3.30718256       3.71826432
Si       3.82987586       0.53861990       6.97774121
Si       1.62661994       1.38428133       1.62973845
Si       1.62661994       2.46152112       9.06626708
Si       0.85229394       1.37242646       3.83854631
Si       0.85229394       2.47337599       6.85745921
Si       3.05554986       3.29532769       1.50945645
Si       3.05554986       0.55047477       9.18654908
Si       0.35940916      -0.00000000       0.00000000
Si       2.56266508       1.92290123       5.34800276
10
Lattice="4.4759603331327735 -1.1948374793461514e-24 1.883842040728309e-27 3.9503087107099534e-36 3.7574178991033165 2.3746849197205362e-15 6.932063684604134e-53 -6.200586504812403e-16 10.722184289515491" Properties=species:S:1:pos:R:3 unique_starting_index=72 config_type=initial n_minim_iter=11 stress="-0.013354074317680481 7.828206276686137e-18 -1.7708340539630542e-16 7.828206276686137e-18 -0.01510345049787703 1.0758913548197573e-16 -1.7708340539630542e-16 1.0758913548197573e-16 -0.004395356658195105" pbc="T T T"
Si       3.90266144       3.21035511       3.75589850
Si       3.90266144       0.54706279       6.96628579
Si       1.66468127       1.33164616       1.60519365
Si       1.66468127       2.42577174       9.11699064
Si       0.87285887       1.35106275       3.81811492
Si       0.87285887       2.40635515       6.90406937
Si       3.11083904       3.22977170       1.54297722
Si       3.11083904       0.52764620       9.17920707
Si       0.32595854      -0.00000000       0.00000000
Si       2.56393871       1.87870895       5.36109214
10
Lattice="4.569741723630023 -1.1904299263803907e-24 1.8527817138846486e-27 1.1011564224229597e-38 3.7435574212553147 3.3620415287828296e-15 2.0042219670726095e-54 1.1211641048227007e-15 10.545399537234427" Properties=species:S:1:pos:R:3 unique_starting_index=72 config_type=initial n_minim_iter=12 stress="-0.016815228218943195 -6.290738074569705e-17 -2.279935795598465e-16 -6.290738074569705e-17 -0.025009655286740096 2.68245841223168e-16 -2.279935795598465e-16 2.68245841223168e-16 -0.008899434408152298" pbc="T T T"
Si       4.01863161       3.17923001       3.77483116
Si       4.01863161       0.56432741       6.77056838
Si       1.73376074       1.30745130       1.49786861
Si       1.73376074       2.43610612       9.04753093
Si       0.87837047       1.34247778       3.70425595
Si       0.87837047       2.40107964       6.84114358
Si       3.16324133       3.21425649       1.56844381
Si       3.16324133       0.52930093       8.97695572
Si       0.28994025      -0.00000000       0.00000000
Si       2.57481111       1.87177871       5.27269977
10
Lattice="4.6502054482256625 -1.1968889284514067e-24 1.83828123617981e-27 3.459380774894122e-40 3.763869112519957 4.189150862832169e-15 6.387116735504672e-55 2.567818227724428e-15 10.462867779861448" Properties=species:S:1:pos:R:3 unique_starting_index=72 config_type=initial n_minim_iter=13 stress="-0.0020727610557866425 1.923475032954922e-16 -2.4610022583127683e-16 1.923475032954922e-16 -0.013466445893603783 3.216922120565815e-16 -2.4610022583127683e-16 3.216922120565815e-16 -0.0036803862152930784" pbc="T T T"
Si       4.10699235       3.18951333       3.78686115
Si       4.10699235       0.57435578       6.67600663
Si       1.78188962       1.30757878       1.44457274
Si       1.78188962       2.45629034       9.01829504
Si       0.88992695       1.34295296       3.64877774
Si       0.88992695       2.42091616       6.81409004
Si       3.21502968       3.22488751       1.58265615
Si       3.21502968       0.53898160       8.88021163
Si       0.26766326      -0.00000000       0.00000000
Si       2.59276598       1.88193456       5.23143389
10
Lattice="4.6328030263612625 -1.2186363476922785e-24 1.8280926802311538e-27 1.5265719564506095e-41 3.832258448916982 5.167913979473917e-15 2.6896356435436698e-55 4.302882218428916e-15 10.404878005687008" Properties=species:S:1:pos:R:3 unique_starting_index=72 config_type=initial n_minim_iter=14 stress="0.0006053719782681324 -7.32609844209705e-17 -4.268228243160923e-16 -7.32609844209705e-17 -0.00021042789777928305 3.638304916241852e-16 -4.268228243160923e-16 3.638304916241852e-16 -0.0020129696372220215" pbc="T T T"
Si       4.10305508       3.23782461       3.80742981
Si       4.10305508       0.59443384       6.59744819
Si       1.78665357       1.32169539       1.39500919
Si       1.78665357       2.51056306       9.00986882
Si       0.88075526       1.35999214       3.59880126
Si       0.88075526       2.47226631       6.80607675
Si       3.19715678       3.27612136       1.60363774
Si       3.19715678       0.55613709       8.80124026
Si       0.25547964      -0.00000000       0.00000000
Si       2.57188115       1.91612922       5.20243900
10
Lattice="4.658588973081827 -1.2225443724833079e-24 1.8205617111115883e-27 7.07700727254536e-43 3.8445480552891875 6.395713729499335e-15 1.3348367292527743e-55 6.414581879640839e-15 10.362014306380674" Properties=species:S:1:pos:R:3 unique_starting_index=72 config_type=initial n_minim_iter=15 stress="0.005552828685258208 -2.5428406547682443e-16 -2.481148446558215e-16 -2.5428406547682443e-16 0.0027489614667294787 4.548772152023299e-16 -2.481148446558215e-16 4.548772152023299e-16 0.0033904125518190295" pbc="T T T"
Si       4.14006532       3.23343162       3.82838411
Si       4.14006532       0.61111643       6.53363020
Si       1.81077083       1.31115759       1.35262304
Si       1.81077083       2.53339046       9.00939126
Si       0.89172070       1.36113709       3.55172586
Si       0.89172070       2.48341097       6.81028844
Si       3.22101519       3.28341111       1.62928129
Si       3.22101519       0.56113694       8.73273301
Si       0.21642954      -0.00000000       0.00000000
Si       2.54572403       1.92227403       5.18100715
10
Lattice="4.634863952962003 -1.2299457989203933e-24 1.8154005532533463e-27 3.652698831132635e-44 3.8678233982996524 7.903964824436644e-15 7.198784088883483e-56 9.013652220668641e-15 10.332638761880776" Properties=species:S:1:pos:R:3 unique_starting_index=72 config_type=initial n_minim_iter=16 stress="0.000942609082292234 -3.114572557850822e-16 -2.483454162705294e-16 -3.114572557850822e-16 0.003903103033093772 5.350880045264593e-16 -2.483454162705294e-16 5.350880045264593e-16 0.0027324321994395104" pbc="T T T"
Si       4.12366355       3.24919504       3.83441031
Si       4.12366355       0.61862836       6.49822846
Si       1.80623158       1.31528334       1.33190908
Si       1.80623158       2.55254006       9.00072969
Si       0.88470212       1.36403921       3.52999825
Si       0.88470212       2.50378419       6.80264051
Si       3.20213410       3.29795091       1.63632113
Si       3.20213410       0.56987249       8.69631763
Si       0.21091679      -0.00000000       0.00000000
Si       2.52834876       1.93391170       5.16631938
10
Lattice="4.629076981561309 -1.2369648075627805e-24 1.796908349488588e-27 2.9637876678201013e-46 3.8898961480775065 1.1145280946215808e-14 3.180762143545975e-56 1.4647006754374436e-14 10.227387465653615" Properties=species:S:1:pos:R:3 unique_starting_index=72 config_type=initial n_minim_iter=17 stress="-0.005328781035976086 -3.881163823352282e-16 -4.895185340193042e-16 -3.881163823352282e-16 0.003423918424499192 7.838626525352123e-16 -4.895185340193042e-16 7.838626525352123e-16 0.0004639722365322979" pbc="T T T"
Si       4.12969936       3.26409351       3.82866626
Si       4.12969936       0.62580263       6.39872121
Si       1.81516087       1.31914544       1.28502748
Si       1.81516087       2.57075071       8.94235999
Si       0.87453375       1.35349197       3.47616120
Si       0.87453375       2.53640418       6.75122627
Si       3.18907224       3.29844004       1.63753253
Si       3.18907224       0.59145611       8.58985493
Si       0.20641194      -0.00000000       0.00000000
Si       2.52095043       1.94494807       5.11369373
10
Lattice="4.690360731524236 -1.22968157615197e-24 1.7786872450888223e-27 2.7641207030994523e-49 3.8669924942004883 1.7535031082518292e-14 2.139539440921684e-56 2.5474955101943143e-14 10.12367917425388" Properties=species:S:1:pos:R:3 unique_starting_index=72 config_type=initial n_minim_iter=18 stress="0.0009837684496203027 -4.783407614556629e-16 -4.465786023465292e-16 -4.783407614556629e-16 0.002231490931965801 1.7446702697807745e-15 -4.465786023465292e-16 1.7446702697807745e-15 -0.0005267702967187805" pbc="T T T"
Si       4.19523892       3.23483537       3.81757283
Si       4.19523892       0.63215712       6.30610635
Si       1.85005855       1.30133912       1.24426676
Si       1.85005855       2.56565337       8.87941242
Si       0.88623909       1.33472399       3.42195871
Si       0.88623909       2.53226851       6.70172047
Si       3.23141946       3.26822024       1.63988088
Si       3.23141946       0.59877226       8.48379830
Si       0.18715558      -0.00000000       0.00000000
Si       2.53233595       1.93349625       5.06183959
10
Lattice="4.695771253917316 -1.2238150289021858e-24 1.782652877879489e-27 1.2856473816646046e-50 3.848543901799211 2.1491434466319822e-14 1.8779106213717838e-56 3.1964957377523403e-14 10.146250199159509" Properties=species:S:1:pos:R:3 unique_starting_index=72 config_type=initial n_minim_iter=19 stress="0.001064953540513141 -4.55634715540023e-16 -2.481908832349251e-16 -4.55634715540023e-16 -0.001743624877644484 1.956842352988899e-15 -2.481908832349251e-16 1.956842352988899e-15 0.00011870405156684683" pbc="T T T"
Si       4.19602553       3.21930170       3.81592388
Si       4.19602553       0.62924220       6.33032632
Si       1.84813991       1.29502975       1.25720122
Si       1.84813991       2.55351415       8.88904898
Si       0.88956237       1.33139914       3.43751596
Si       0.88956237       2.51714476       6.70873424
Si       3.23744800       3.25567109       1.63560914
Si       3.23744800       0.59287281       8.51064106
Si       0.19087507      -0.00000000       0.00000000
Si       2.53876070       1.92427195       5.07312510
10
Lattice="4.699643238637202 -1.2235930843004869e-24 1.7740788706568284e-27 7.707223620655176e-53 3.8478459502924616 2.9988122364285405e-14 1.5339861526064778e-56 4.639435566260144e-14 10.097449883886549" Properties=species:S:1:pos:R:3 unique_starting_index=72 config_type=initial n_minim_iter=20 stress="-0.0017613524607072082 -5.201588235621586e-16 -4.310082829370309e-16 -5.201588235621586e-16 -0.002918325683194755 2.6470794368565783e-15 -4.310082829370309e-16 2.6470794368565783e-15 -0.0020506040286613803" pbc="T T T"
Si       4.20416449       3.20832850       3.81527003
Si       4.20416449       0.63951745       6.28217985
Si       1.85434287       1.28440553       1.23345491
Si       1.85434287       2.56344042       8.86399497
Si       0.89052232       1.32323515       3.41432300
Si       0.89052232       2.52461080       6.68312688
Si       3.24034394       3.24715812       1.63440194
Si       3.24034394       0.60068783       8.46304795
Si       0.18122148      -0.00000000       0.00000000
Si       2.53104310       1.92392298       5.04872494
10
Lattice="4.67787111642165 -1.2258587879322475e-24 1.7823016910331377e-27 4.823887201032443e-55 3.8549709321642056 4.1946243411513004e-14 1.274630713485995e-56 6.635020825557448e-14 10.144251363834956" Properties=species:S:1:pos:R:3 unique_starting_index=72 config_type=initial n_minim_iter=21 stress="-0.003792231709808743 -5.424973974977537e-16 -9.211683189927158e-17 -5.424973974977537e-16 -0.00038840604985351346 3.695294117202571e-15 -9.211683189927158e-17 3.695294117202571e-15 0.00039291119543414843" pbc="T T T"
Si       4.17514506       3.20495049       3.81902074
Si       4.17514506       0.65002044       6.32523062
Si       1.83620950       1.27746503       1.25310494
Si       1.83620950       2.57750591       8.89114643
Si       0.88888466       1.31949327       3.45227947
Si       0.88888466       2.53547766       6.69197189
Si       3.22782022       3.24697874       1.61984621
Si       3.22782022       0.60799220       8.52440515
Si       0.19449162      -0.00000000       0.00000000
Si       2.53342718       1.92748547       5.07212568
