24
Lattice="7.025550321120223 -1.8071346638128531 0.13977039163504898 0.6366791489984058 7.840084548820565 0.23094682335424255 1.9202926166325671 2.792818111037604 9.661922064673723" Properties=species:S:1:pos:R:3 unique_starting_index=94 config_type=initial n_minim_iter=1 energy=-3920.563233745345 free_energy=-3920.563233745345 pbc="T T T"
Si       8.18088825       5.60491425       8.02799200
Si      -0.45474760       2.83467541       3.63234107
Si       2.83319659       6.51780232       1.32902057
Si       6.17990721       9.02052477       7.65539983
Si       5.26670744       1.59990329       1.77355015
Si       5.72121631       4.35233530       9.87313588
Si       4.48937701       0.68731761       3.53211821
Si       3.76723209      -0.00226576       1.65474204
Si       6.99353740       0.69255178       5.83051534
Si       7.78171710       6.40221907       6.12189821
Si       4.56328729       6.09398008       9.44164155
Si       5.23387988       1.79509629       5.41106614
Si       1.43251554       5.92721765       2.84485306
Si       2.83268764       5.85799841       7.83577429
Si       6.99732021       2.89866053       4.68292052
Si       6.08957510       5.16086946       7.93518713
Si       5.06656406       2.45113245       9.10016605
Si       1.69723098       4.73687942       1.05168310
Si       7.02286308       2.65095862       2.45747090
Si       4.16912940       4.29287423       8.39585951
Si       6.39897621       4.47833540       3.37795530
Si       1.89696169       0.76905234       0.73625760
Si       4.83809211       8.27703702       9.12951518
Si       5.19653135       2.71468428       3.50822388
24
Lattice="7.019934069603978 -1.8121896744147392 0.14090169095735502 0.6295071832990731 7.836206155352241 0.23403786341848054 1.9186541569310203 2.7937760735400494 9.656700663627367" Properties=species:S:1:pos:R:3 unique_starting_index=94 config_type=initial n_minim_iter=2 stress="-0.007957409963637996 -0.0016090627486143741 0.00045441832307133065 -0.0016090627486143741 -0.009135215251180575 0.00024375871622052612 0.00045441832307133065 0.00024375871622052612 -0.00890025040918752" pbc="T T T"
Si       8.17023718       5.59863292       8.02692060
Si      -0.45588798       2.83542646       3.63074257
Si       2.82498832       6.51313240       1.33154185
Si       6.16824601       9.01477458       7.65545970
Si       5.26059985       1.59535977       1.77421113
Si       5.71423792       4.34928168       9.86939104
Si       4.48533828       0.68494184       3.53101490
Si       3.76354106      -0.00475721       1.65425541
Si       6.98748174       0.68850572       5.82872646
Si       7.77002264       6.39533796       6.12215879
Si       4.55615258       6.09131408       9.43854450
Si       5.22878112       1.79225698       5.40916812
Si       1.42695260       5.92460442       2.84515948
Si       2.82701214       5.85595745       7.83350112
Si       6.98885499       2.89336124       4.68233941
Si       6.08137673       5.15645064       7.93323442
Si       5.06173221       2.44893500       9.09599082
Si       1.69175963       4.73388481       1.05335524
Si       7.01413147       2.64445291       2.45853161
Si       4.16363072       4.29062797       8.39296561
Si       6.38963051       4.47223829       3.37916670
Si       1.89478862       0.76762565       0.73656690
Si       4.82874884       8.27317802       9.12789718
Si       5.18982698       2.71055846       3.50876435
24
Lattice="7.022582495412716 -1.8254435980395614 0.14306770168719046 0.6180968420837486 7.8486876980306866 0.2411517004416899 1.9193991747836425 2.803755167356269 9.66955880447852" Properties=species:S:1:pos:R:3 unique_starting_index=94 config_type=initial n_minim_iter=3 stress="-0.003606630953371618 -0.008295344076723526 0.004507944036600453 -0.008295344076723526 0.00798408952929574 0.00563104051807297 0.004507944036600453 0.00563104051807297 0.0034269763088332237" pbc="T T T"
Si       8.16686608       5.60234598       8.04435043
Si      -0.45895975       2.84456712       3.63641088
Si       2.81521917       6.52131734       1.34027854
Si       6.15935526       9.02895320       7.67466574
Si       5.25976954       1.59145652       1.77903342
Si       5.71211457       4.35584447       9.88543587
Si       4.48624050       0.68350998       3.53715010
Si       3.76313561      -0.00893985       1.65645256
Si       6.98959503       0.68361187       5.83930791
Si       7.76334797       6.40003215       6.13723851
Si       4.55207620       6.10338682       9.45510387
Si       5.22988004       1.79307220       5.41770199
Si       1.42025825       5.93534925       2.85218589
Si       2.82220732       5.86749158       7.84841466
Si       6.98620355       2.89196325       4.69160930
Si       6.07845100       5.16224827       7.94812353
Si       5.06223257       2.45144375       9.10913949
Si       1.68513123       4.74044836       1.05946422
Si       7.01106305       2.63881702       2.46592798
Si       4.16156607       4.29799831       8.40775074
Si       6.38471581       4.47307190       3.38979008
Si       1.89458158       0.76758257       0.73904611
Si       4.82121816       8.28864895       9.14737199
Si       5.18704719       2.71062726       3.51934794
24
Lattice="7.031885147244285 -1.8195740065322734 0.1342205819496297 0.6228017045428159 7.838582683050812 0.23100873056364826 1.9087504832165665 2.789956549206211 9.659923652103418" Properties=species:S:1:pos:R:3 unique_starting_index=94 config_type=initial n_minim_iter=4 stress="0.0031728047628643836 -0.006435018370310551 -0.0025652289047344125 -0.006435018370310551 -0.008094542946606309 0.0006205073504526539 -0.0025652289047344125 0.0006205073504526539 0.0020677366664671724" pbc="T T T"
Si       8.17430347       5.58792029       8.02571392
Si      -0.46661910       2.83965545       3.63330050
Si       2.81670670       6.51427025       1.32985175
Si       6.16443090       9.02016478       7.65615396
Si       5.26892086       1.58851068       1.76306277
Si       5.70491008       4.33999147       9.86624198
Si       4.48746673       0.68550787       3.52686940
Si       3.76065719      -0.00868021       1.64428558
Si       6.99180052       0.67656090       5.82840273
Si       7.76741445       6.38997552       6.11434239
Si       4.54840753       6.08809899       9.43666068
Si       5.23643332       1.79136995       5.40152503
Si       1.42321498       5.92712343       2.83514533
Si       2.81729518       5.84789224       7.83886955
Si       6.98750266       2.88671498       4.66883331
Si       6.08159631       5.14667656       7.92805908
Si       5.05439241       2.43250455       9.09334737
Si       1.68815873       4.73422338       1.05158338
Si       7.01735931       2.62798564       2.44770244
Si       4.15711352       4.28258202       8.39796420
Si       6.39205432       4.46551614       3.37479142
Si       1.89905383       0.76953045       0.73553058
Si       4.81889635       8.27479512       9.13284909
Si       5.18800046       2.70650204       3.51787454
24
Lattice="7.017540154081047 -1.8106480917416343 0.13965637348088095 0.6367132114891608 7.8581622280821835 0.22921314151083183 1.9181188230200528 2.79775076949615 9.646827381374468" Properties=species:S:1:pos:R:3 unique_starting_index=94 config_type=initial n_minim_iter=5 stress="-0.005990261102996038 0.003074946798265197 0.0024512795235044236 0.003074946798265197 0.002104027213499633 0.003577921588465511 0.0024512795235044236 0.003577921588465511 -0.0075820805774783" pbc="T T T"
Si       8.17986264       5.61358049       8.02032801
Si      -0.45896323       2.84504779       3.62785171
Si       2.82374946       6.53560375       1.32925986
Si       6.17872317       9.05448393       7.64822192
Si       5.26570687       1.60064122       1.76202562
Si       5.71070198       4.35844424       9.85390946
Si       4.48385184       0.69648617       3.52345499
Si       3.75413342      -0.00178266       1.64307991
Si       6.98619502       0.68905603       5.82585318
Si       7.77115360       6.41839852       6.10925816
Si       4.56021112       6.10931319       9.42482154
Si       5.23864535       1.80557458       5.39623157
Si       1.43331991       5.94311248       2.82790235
Si       2.82961946       5.86301815       7.83024244
Si       6.98446116       2.90590678       4.66419773
Si       6.08911288       5.16693117       7.91938791
Si       5.05614023       2.44336236       9.08374860
Si       1.69480967       4.74795631       1.05027847
Si       7.01326028       2.64474636       2.44760167
Si       4.16492498       4.29724920       8.38959273
Si       6.39372177       4.48668847       3.37362536
Si       1.89902183       0.77540454       0.73583867
Si       4.83372832       8.30286755       9.12336476
Si       5.18652196       2.72243908       3.52023621
24
Lattice="7.013266005962694 -1.817714995666774 0.14497664008510153 0.6311321296495747 7.866670476885682 0.21267198491782988 1.9164864762016924 2.7789583598521213 9.653749654156671" Properties=species:S:1:pos:R:3 unique_starting_index=94 config_type=initial n_minim_iter=6 stress="-0.01169507349314622 -0.0018552987239717524 0.0017035352566816516 -0.0018552987239717524 0.005139517653847256 -0.011365811346156867 0.0017035352566816516 -0.011365811346156867 0.005905656609436469" pbc="T T T"
Si       8.17471703       5.59586111       8.02276739
Si      -0.46102509       2.84101919       3.62833910
Si       2.81445600       6.54139557       1.31889655
Si       6.17207845       9.04993845       7.63903827
Si       5.26139656       1.59263089       1.75858970
Si       5.70498081       4.33871212       9.85540991
Si       4.47867757       0.69008334       3.52286543
Si       3.74891542      -0.00692304       1.64405855
Si       6.98115281       0.67104773       5.83451219
Si       7.76085378       6.40804600       6.10397016
Si       4.55530243       6.09343998       9.42383475
Si       5.23994232       1.79521444       5.39950780
Si       1.42382249       5.94086110       2.81432926
Si       2.82472079       5.84749880       7.83195650
Si       6.97725582       2.89535794       4.66180673
Si       6.08528767       5.14933669       7.91867649
Si       5.04867589       2.42175864       9.09379824
Si       1.69049021       4.74980013       1.04140611
Si       7.00836943       2.63724240       2.44568876
Si       4.16105369       4.28006412       8.39480485
Si       6.38744163       4.47904823       3.36869877
Si       1.89823003       0.77356021       0.73637134
Si       4.82647617       8.29240993       9.12085745
Si       5.17957594       2.71660000       3.52670066
24
Lattice="7.029367583053597 -1.8194969085279764 0.1421574721942748 0.6308592853973812 7.868755652199194 0.22208160764123724 1.9193964817048883 2.7909925711719374 9.65380439375203" Properties=species:S:1:pos:R:3 unique_starting_index=94 config_type=initial n_minim_iter=7 stress="0.0009142684833070049 -0.0008162406395806558 5.3313296901965926e-05 -0.0008162406395806558 0.004392858704243979 -0.0024126034155887016 5.3313296901965926e-05 -0.0024126034155887016 0.0017563803935383108" pbc="T T T"
Si       8.19478792       5.60368851       8.02852569
Si      -0.46386583       2.84627257       3.63280394
Si       2.81591204       6.54705946       1.32775443
Si       6.18623652       9.06532969       7.64554348
Si       5.27301922       1.59107035       1.75639666
Si       5.71632859       4.35064766       9.85399630
Si       4.48606990       0.69715358       3.51705539
Si       3.75481475      -0.00416109       1.64114792
Si       6.99606455       0.67505520       5.83391378
Si       7.77528243       6.41550225       6.10875575
Si       4.56466282       6.10544668       9.42674827
Si       5.25675835       1.80374708       5.39908613
Si       1.42035773       5.94292620       2.81586365
Si       2.82895650       5.85382643       7.84009916
Si       6.99160437       2.90119053       4.65982429
Si       6.10021418       5.15608339       7.92090988
Si       5.05498374       2.43132873       9.09645538
Si       1.69345958       4.75142100       1.04598408
Si       7.02464639       2.63841625       2.44754559
Si       4.16949804       4.28893817       8.39963986
Si       6.40105360       4.48120383       3.37166802
Si       1.90296018       0.77406426       0.73818059
Si       4.83522232       8.30694185       9.12982946
Si       5.18866117       2.72259194       3.53505295
24
Lattice="7.022276394996909 -1.8159681312854417 0.14510077601398524 0.633463333304828 7.866068467581827 0.22694582054762033 1.9237203308228896 2.7957182948436725 9.674113763348913" Properties=species:S:1:pos:R:3 unique_starting_index=94 config_type=initial n_minim_iter=8 stress="-0.0054511694380895434 0.0017090704618607136 2.4988092347784583e-05 0.0017090704618607136 0.0015500382120065778 0.0035634342180999898 2.4988092347784583e-05 0.0035634342180999898 0.013541260539274826" pbc="T T T"
Si       8.19588733       5.60823003       8.05089050
Si      -0.46228337       2.84638691       3.64219159
Si       2.81318519       6.54839633       1.33684839
Si       6.19004060       9.07202524       7.66639726
Si       5.27058107       1.59192275       1.75994278
Si       5.71855756       4.35610197       9.87639080
Si       4.48264378       0.70342360       3.52258190
Si       3.75064957       0.00015819       1.64442011
Si       6.99306152       0.67899969       5.84927666
Si       7.77309878       6.41850274       6.12878159
Si       4.56888805       6.10889183       9.44874302
Si       5.26047223       1.81004597       5.41316265
Si       1.41965076       5.94133266       2.82227471
Si       2.83269471       5.85288442       7.86257710
Si       6.99004718       2.90588434       4.67183192
Si       6.10372114       5.15844633       7.94002298
Si       5.05322054       2.43760200       9.11984552
Si       1.69571068       4.75029988       1.04952713
Si       7.01681575       2.63886752       2.45883018
Si       4.17244163       4.29305956       8.42114687
Si       6.39723690       4.48285050       3.38200534
Si       1.90207276       0.77487543       0.74291658
Si       4.83960030       8.31218037       9.15431559
Si       5.18707141       2.72740181       3.54870328
24
Lattice="7.0373115351869355 -1.8279184051591661 0.15882401275870348 0.6260387022393292 7.880918247453246 0.21298300472421924 1.938740009659614 2.7814430002981623 9.65101074594391" Properties=species:S:1:pos:R:3 unique_starting_index=94 config_type=initial n_minim_iter=9 stress="0.003290319138728747 -0.0028899722622774252 0.0035381087094991707 -0.0028899722622774252 0.006789724504029645 0.0006494258092149699 0.0035381087094991707 0.0006494258092149699 0.002569913261435629" pbc="T T T"
Si       8.22054509       5.59460638       8.03548109
Si      -0.46415013       2.84476390       3.63152151
Si       2.80672512       6.55922217       1.32915218
Si       6.20592042       9.07615264       7.64066621
Si       5.28261593       1.58424679       1.75632112
Si       5.74089419       4.33972249       9.85409043
Si       4.49247324       0.69851079       3.51373113
Si       3.75739800      -0.00338008       1.64398968
Si       7.01457452       0.65870580       5.84661543
Si       7.78810238       6.40943706       6.11893853
Si       4.58661304       6.09722396       9.42215966
Si       5.28495070       1.80183075       5.40726701
Si       1.41483188       5.94408635       2.80293802
Si       2.84280180       5.84032788       7.84536710
Si       7.00978745       2.89626665       4.66443188
Si       6.12654033       5.14337902       7.92024078
Si       5.06883871       2.42101736       9.10782131
Si       1.69736098       4.75520514       1.03812256
Si       7.02299536       2.62673604       2.46243146
Si       4.18970606       4.28092209       8.40413006
Si       6.40489501       4.47764567       3.37311812
Si       1.90568157       0.77340033       0.74673101
Si       4.85473130       8.31021370       9.12770773
Si       5.19938582       2.72321478       3.54721590
24
Lattice="7.034819963783668 -1.8334670620967457 0.14571650643703765 0.6228530250356594 7.894658891551801 0.20652184892809208 1.9176734656373189 2.7797304270841097 9.636591199901472" Properties=species:S:1:pos:R:3 unique_starting_index=94 config_type=initial n_minim_iter=10 stress="-0.004015854974493076 -0.00380265226430834 -0.010456020941187978 -0.00380265226430834 0.008736837577963443 0.0001492658526100734 -0.010456020941187978 0.0001492658526100734 -0.003393148504895313" pbc="T T T"
Si       8.20310206       5.59686786       8.00573054
Si      -0.47831816       2.84518286       3.63156550
Si       2.79467095       6.57388543       1.32173850
Si       6.18817246       9.09256250       7.61516769
Si       5.27860318       1.58733538       1.74019823
Si       5.71882823       4.33956627       9.82981707
Si       4.48087056       0.70278930       3.49675436
Si       3.74874140      -0.00166589       1.63051813
Si       7.00147294       0.64957267       5.82665961
Si       7.76935208       6.41158281       6.09997222
Si       4.56860482       6.09960296       9.39935175
Si       5.28164876       1.80486317       5.39178425
Si       1.39904770       5.94733844       2.79045159
Si       2.82364069       5.83632131       7.83658571
Si       7.00246472       2.89902262       4.64088901
Si       6.11363483       5.14088113       7.89450333
Si       5.04334548       2.42043908       9.09200785
Si       1.69208759       4.76099002       1.03000028
Si       7.01107956       2.62276812       2.44506438
Si       4.17209070       4.27830677       8.38639801
Si       6.38739651       4.48160269       3.35120290
Si       1.90299235       0.77579678       0.74769061
Si       4.83558693       8.32202631       9.10286945
Si       5.18772307       2.72254724       3.52891055
24
Lattice="7.046682048913664 -1.826437528444699 0.1731432282645591 0.6295188997064892 7.881868401919233 0.19974659139662906 1.9574505895256933 2.764961423167175 9.645605753881247" Properties=species:S:1:pos:R:3 unique_starting_index=94 config_type=initial n_minim_iter=11 stress="0.0010199093324762794 -0.0025098089968609715 0.00019808758646446982 -0.0025098089968609715 -0.005592796843846984 -0.0016569123551069883 0.00019808758646446982 -0.0016569123551069883 -0.0030009193315772356" pbc="T T T"
Si       8.25422093       5.58299280       8.03063960
Si      -0.47085042       2.83374123       3.63307395
Si       2.80119629       6.56808924       1.32853636
Si       6.23507440       9.08003152       7.63199902
Si       5.29727595       1.58960253       1.75553400
Si       5.76786253       4.32508168       9.84912177
Si       4.49810441       0.70762240       3.50974585
Si       3.75679083       0.00278312       1.63970344
Si       7.03773385       0.63999748       5.85448607
Si       7.80721969       6.39546265       6.13080693
Si       4.61999369       6.07992400       9.41289893
Si       5.32292663       1.80452485       5.41266492
Si       1.40637465       5.92939403       2.78704739
Si       2.85982393       5.80936701       7.85317029
Si       7.04032594       2.89617319       4.66082988
Si       6.16386806       5.12120504       7.91179941
Si       5.08171858       2.41151317       9.11664146
Si       1.70012121       4.75121433       1.03043995
Si       7.03171691       2.61420336       2.46868672
Si       4.21502650       4.25951189       8.40185542
Si       6.40534949       4.47400575       3.36727086
Si       1.90961466       0.77761542       0.76088123
Si       4.88637992       8.30547285       9.11401313
Si       5.20892778       2.71463112       3.54171445
24
Lattice="7.0496622946036815 -1.8284739954538565 0.19561439841997133 0.6297719316628261 7.887488092418897 0.19616128900858953 1.987065210976755 2.7601270892793077 9.648144567700113" Properties=species:S:1:pos:R:3 unique_starting_index=94 config_type=initial n_minim_iter=12 stress="0.005602789506984352 0.0014239603843172917 -0.0016064240012275148 0.0014239603843172917 -0.0060129814559469075 0.0006771922894051809 -0.0016064240012275148 0.0006771922894051809 0.0027485341631900977" pbc="T T T"
Si       8.28904260       5.57978355       8.04823145
Si      -0.47108682       2.83491526       3.63823135
Si       2.79270092       6.57462204       1.33512797
Si       6.26418262       9.09241298       7.64812740
Si       5.30017167       1.59360003       1.75176807
Si       5.80215658       4.32696122       9.86013813
Si       4.49582119       0.70995196       3.51657578
Si       3.75691573       0.00624291       1.64809067
Si       7.06384319       0.62404783       5.87331490
Si       7.82278887       6.39011235       6.16016514
Si       4.66120886       6.07328901       9.41823097
Si       5.36170238       1.81238643       5.42892678
Si       1.40026669       5.92489282       2.78924861
Si       2.88200563       5.79044248       7.87286005
Si       7.06918833       2.90120133       4.66282119
Si       6.20353838       5.10792717       7.92215934
Si       5.10501204       2.41363835       9.13552642
Si       1.70246625       4.75355721       1.02739424
Si       7.04454037       2.59930996       2.48567562
Si       4.25040589       4.25003499       8.41290547
Si       6.39904351       4.47111309       3.37827839
Si       1.91430803       0.78878094       0.77815499
Si       4.92076894       8.31209906       9.12322766
Si       5.21550941       2.71692221       3.54945355
24
Lattice="7.050999376245477 -1.8318821493318183 0.22456631071083347 0.631925214474117 7.905601172571172 0.18487283156340198 2.0233030980158184 2.7501998201719235 9.649928516781548" Properties=species:S:1:pos:R:3 unique_starting_index=94 config_type=initial n_minim_iter=13 stress="0.002033089558323063 0.005997633297205038 0.0005513351071711668 0.005997633297205038 -0.009461546072889408 -0.0020789908136636813 0.0005513351071711668 -0.0020789908136636813 -0.006747449672773191" pbc="T T T"
Si       8.33401187       5.57769586       8.06941558
Si      -0.47842881       2.84200850       3.63949153
Si       2.78515814       6.59576009       1.33582416
Si       6.30299448       9.11366683       7.65789274
Si       5.29957410       1.59934779       1.76100767
Si       5.84353468       4.32278240       9.87239970
Si       4.49735473       0.71530455       3.51734356
Si       3.75262440       0.00665083       1.65870197
Si       7.09336728       0.60328360       5.89657747
Si       7.83783828       6.38777428       6.18956068
Si       4.70748073       6.07349836       9.41847671
Si       5.41213130       1.82002194       5.45175569
Si       1.39105469       5.92944576       2.79707394
Si       2.90988796       5.76665274       7.89498446
Si       7.10341888       2.91153202       4.64826501
Si       6.25355346       5.09347687       7.92866849
Si       5.13663430       2.41523780       9.16109900
Si       1.71265672       4.76275391       1.01019306
Si       7.05871603       2.57738000       2.50437924
Si       4.29572795       4.24455153       8.42379876
Si       6.39341635       4.47448878       3.38799508
Si       1.92128229       0.80521658       0.80110254
Si       4.96000410       8.32141762       9.13294961
Si       5.21575305       2.71320024       3.55344034
24
Lattice="7.048313199198889 -1.8352114406022582 0.23192314235280245 0.630601145835027 7.91506249941647 0.18692678226519355 2.0323122062788053 2.754726858287267 9.660744878502165" Properties=species:S:1:pos:R:3 unique_starting_index=94 config_type=initial n_minim_iter=14 stress="0.004639212897279724 0.006710307209904393 0.0009294812701032267 0.006710307209904393 -0.003342019970217671 -0.0015575631716235696 0.0009294812701032267 -0.0015575631716235696 -0.003418626782706057" pbc="T T T"
Si       8.34355414       5.58324168       8.08864265
Si      -0.48077373       2.84528411       3.64457827
Si       2.77836808       6.60793440       1.34318387
Si       6.30905801       9.12655066       7.67509880
Si       5.29949539       1.59932938       1.77077671
Si       5.85090627       4.32977306       9.88593864
Si       4.49510985       0.71345103       3.52256742
Si       3.74786757       0.00571660       1.66198325
Si       7.09582989       0.60356958       5.90383547
Si       7.83446378       6.39148902       6.20633833
Si       4.71689319       6.07983309       9.42766392
Si       5.42262134       1.82585286       5.47044317
Si       1.39110942       5.93479232       2.80461801
Si       2.91430260       5.76856915       7.91192340
Si       7.10971513       2.91650617       4.64226728
Si       6.26326518       5.09644375       7.94231804
Si       5.14612116       2.41692830       9.17767827
Si       1.70939486       4.77047420       1.01668890
Si       7.05920451       2.57421476       2.51122994
Si       4.30829588       4.25638759       8.43856478
Si       6.38521709       4.48217021       3.39540943
Si       1.92210643       0.80778827       0.80863660
Si       4.97061363       8.33591905       9.14511841
Si       5.21429184       2.71743818       3.56153114
24
Lattice="7.040062243852061 -1.8340773759363682 0.23383980874174004 0.6301791548948782 7.9113867618403875 0.18980840433999732 2.0333853677881644 2.756471554221328 9.671154946584357" Properties=species:S:1:pos:R:3 unique_starting_index=94 config_type=initial n_minim_iter=15 stress="0.004774693831154805 0.003135714647234083 -0.00034091834701337133 0.003135714647234083 0.004307752987342104 -0.0026585848557785143 -0.00034091834701337133 -0.0026585848557785143 0.0007025300537116903" pbc="T T T"
Si       8.34240947       5.58237126       8.10473229
Si      -0.48231451       2.84076775       3.64711157
Si       2.76839098       6.60791224       1.34860633
Si       6.30754831       9.12337180       7.69170099
Si       5.29528832       1.59601831       1.77587314
Si       5.85194225       4.32965731       9.90226080
Si       4.48664182       0.70773338       3.52986507
Si       3.74102555       0.00709126       1.66206954
Si       7.08940631       0.60503889       5.90455512
Si       7.82032816       6.38795620       6.21685834
Si       4.71512387       6.08998988       9.44028180
Si       5.41854643       1.83382294       5.48630698
Si       1.38942113       5.92832153       2.81017977
Si       2.90924983       5.76756336       7.92532545
Si       7.10747824       2.91558554       4.62917684
Si       6.26260085       5.09594776       7.95370733
Si       5.14860814       2.41540390       9.18867628
Si       1.70812013       4.77145713       1.02318322
Si       7.05174494       2.57422648       2.51427534
Si       4.31277443       4.25542763       8.44971425
Si       6.37305942       4.48925176       3.39722348
Si       1.91950020       0.80667849       0.81180605
Si       4.97173509       8.33875590       9.15744782
Si       5.20947724       2.71611931       3.56972198
24
Lattice="7.03130511954478 -1.8342128971588885 0.22919865512136886 0.627720578623285 7.906794083484634 0.1988477084694809 2.0267558076915773 2.7656675745451045 9.679436838786746" Properties=species:S:1:pos:R:3 unique_starting_index=94 config_type=initial n_minim_iter=16 stress="0.0005382277760403593 -0.00025496915982338794 -0.0011700247764150895 -0.00025496915982338794 0.007275603288223228 8.658599987386858e-05 -0.0011700247764150895 8.658599987386858e-05 0.001817723066211362" pbc="T T T"
Si       8.33055839       5.58690047       8.11489158
Si      -0.48627433       2.83834274       3.64953053
Si       2.75909958       6.60534982       1.35554519
Si       6.29913333       9.12267004       7.70657950
Si       5.28945130       1.59275802       1.78071697
Si       5.84066123       4.34281888       9.90984628
Si       4.47684534       0.70673977       3.53273380
Si       3.73557244       0.00632818       1.66391634
Si       7.07986884       0.60848215       5.90276177
Si       7.80136020       6.38771123       6.22582796
Si       4.70630366       6.09885129       9.45177927
Si       5.40564278       1.84647400       5.48969724
Si       1.38381965       5.92528534       2.81913133
Si       2.89847638       5.77343630       7.93722090
Si       7.09924696       2.91553769       4.62201440
Si       6.25289784       5.10125236       7.96493057
Si       5.14322019       2.42243775       9.19511029
Si       1.70562200       4.77233535       1.03105263
Si       7.03839472       2.57414600       2.51093138
Si       4.30762812       4.26223262       8.46015247
Si       6.35977472       4.49721608       3.39776255
Si       1.91501551       0.80740857       0.81107666
Si       4.96076327       8.34456067       9.17327464
Si       5.20206156       2.71283120       3.57780544
24
Lattice="7.02743920605533 -1.8315796194919203 0.23528145334555706 0.6271408147839661 7.894396791187252 0.20784932412417295 2.0361364804477073 2.7709478191669716 9.69617734709236" Properties=species:S:1:pos:R:3 unique_starting_index=94 config_type=initial n_minim_iter=17 stress="-0.004438910225813321 -0.002635981334960544 8.498284624341434e-05 -0.002635981334960544 0.004955317251803388 0.0013164897787252088 8.498284624341434e-05 0.0013164897787252088 0.0020347493431912772" pbc="T T T"
Si       8.33867340       5.58718746       8.13992020
Si      -0.48595345       2.83071726       3.65385112
Si       2.75540262       6.59901358       1.36668268
Si       6.31335687       9.11399550       7.72975992
Si       5.28326658       1.58697927       1.79402290
Si       5.84886491       4.34727509       9.94143102
Si       4.46815593       0.70448636       3.54538195
Si       3.73450067       0.00641478       1.67089952
Si       7.08337508       0.61150481       5.91479143
Si       7.79444306       6.37738605       6.25312384
Si       4.71619440       6.10102304       9.47356825
Si       5.41095540       1.85854851       5.50571214
Si       1.37890290       5.91582218       2.83278609
Si       2.90256641       5.76954995       7.96104903
Si       7.10513681       2.91308974       4.62473841
Si       6.26466136       5.10233494       7.98730927
Si       5.15894472       2.42771963       9.21622037
Si       1.70550957       4.76620243       1.04144067
Si       7.03433677       2.56913244       2.51202195
Si       4.31853857       4.26798448       8.48377612
Si       6.35132366       4.49885836       3.40787241
Si       1.91463738       0.81463594       0.81136022
Si       4.96776855       8.34157190       9.20344138
Si       5.20732748       2.70819164       3.58985032
24
Lattice="7.036592890683147 -1.8307106552994767 0.24659102548710873 0.6237592234887792 7.8732419474339 0.2134335611261719 2.053353105209243 2.767591976545898 9.712318772909015" Properties=species:S:1:pos:R:3 unique_starting_index=94 config_type=initial n_minim_iter=18 stress="-0.007872670385044583 -0.005351186254699683 0.0006138311950527423 -0.005351186254699683 -0.00011965614622593524 0.0006130757828876596 0.0006138311950527423 0.0006130757828876596 0.0003883346770069714" pbc="T T T"
Si       8.36723024       5.57361025       8.16790600
Si      -0.49493324       2.81910936       3.65749468
Si       2.75141096       6.58727690       1.37927629
Si       6.34126697       9.09259874       7.75335103
Si       5.28372271       1.57353965       1.80782019
Si       5.87299245       4.34493819       9.96712067
Si       4.46869797       0.70007591       3.56270772
Si       3.73818650       0.00019835       1.68264568
Si       7.10055284       0.60692400       5.92788752
Si       7.79679847       6.35075651       6.28400712
Si       4.73930133       6.09448168       9.49594846
Si       5.43732780       1.86384384       5.52600453
Si       1.36822594       5.89589903       2.84439700
Si       2.91201643       5.75122365       7.98806880
Si       7.12710276       2.90292627       4.62166230
Si       6.29237811       5.08787821       8.01514307
Si       5.19065811       2.42314831       9.23882477
Si       1.70964329       4.75187599       1.04777862
Si       7.03955446       2.55145290       2.51781541
Si       4.34259945       4.25978779       8.50682310
Si       6.34786067       4.48776978       3.41855304
Si       1.91571436       0.82366610       0.81455244
Si       4.98884503       8.32620312       9.22954501
Si       5.22302793       2.69678417       3.60110154
24
Lattice="7.054433101289895 -1.8280716418459007 0.26125471565337477 0.6254772549326872 7.860391626604976 0.2144547702379771 2.078009711104927 2.7625042896608893 9.718670476125418" Properties=species:S:1:pos:R:3 unique_starting_index=94 config_type=initial n_minim_iter=19 stress="-0.0019884664693744676 -0.00289329934470327 0.0012742957058583804 -0.00289329934470327 -0.00034334971576956857 -0.0007704923163616357 0.0012742957058583804 -0.0007704923163616357 0.002213165892807512" pbc="T T T"
Si       8.41306453       5.56506102       8.18881269
Si      -0.50445591       2.81068626       3.65751565
Si       2.75155934       6.58142233       1.38923382
Si       6.38376729       9.08183412       7.76970135
Si       5.29366526       1.56196745       1.81651848
Si       5.90926139       4.33805308       9.98401613
Si       4.47746233       0.69871526       3.57687147
Si       3.74735561      -0.00001684       1.69388953
Si       7.13034568       0.60095029       5.93682004
Si       7.81455769       6.33224399       6.30748513
Si       4.77594086       6.08880631       9.50486991
Si       5.47620945       1.87009312       5.54108318
Si       1.36142858       5.88110476       2.84720807
Si       2.93277035       5.73410632       8.00721921
Si       7.16299772       2.89796006       4.61772369
Si       6.33520436       5.07708790       8.03438341
Si       5.23081166       2.42413898       9.25760746
Si       1.71941804       4.74546173       1.05207404
Si       7.05727316       2.53468289       2.52237733
Si       4.37817368       4.25446527       8.51910599
Si       6.36046289       4.48587948       3.42582069
Si       1.92428085       0.83006109       0.81728804
Si       5.02711979       8.31840435       9.24070614
Si       5.24079195       2.68551717       3.61263671
24
Lattice="7.062563288415502 -1.827324670685873 0.26583376698253397 0.6263005136160648 7.857098481749922 0.2169957483150509 2.0872015048717607 2.7639303463859033 9.718245470919358" Properties=species:S:1:pos:R:3 unique_starting_index=94 config_type=initial n_minim_iter=20 stress="-0.000514879150760502 -0.0009057260936888449 0.0014768035219962779 -0.0009057260936888449 -0.0017080178747617067 -0.0031702750497708656 0.0014768035219962779 -0.0031702750497708656 0.00037997243890652426" pbc="T T T"
Si       8.43270069       5.56627136       8.19525487
Si      -0.51038302       2.81033451       3.65535318
Si       2.75099073       6.58319400       1.39435567
Si       6.40421273       9.08474391       7.77775251
Si       5.29976839       1.55633894       1.82378458
Si       5.92255987       4.33981938       9.98800197
Si       4.47521979       0.69543484       3.58306313
Si       3.74934033       0.00080130       1.70080138
Si       7.14343595       0.59740788       5.93539286
Si       7.81668304       6.32664724       6.31671702
Si       4.79340773       6.09223662       9.50570802
Si       5.49420742       1.87714974       5.54651759
Si       1.35236080       5.87485283       2.84609781
Si       2.94187300       5.73018184       8.01635968
Si       7.17867147       2.89868119       4.61114120
Si       6.35651713       5.07870161       8.04132618
Si       5.24950753       2.42860281       9.26448472
Si       1.72598300       4.74605067       1.05325301
Si       7.06187910       2.52482039       2.51826423
Si       4.39391499       4.25680624       8.51760699
Si       6.36500192       4.48586390       3.42866984
Si       1.92829507       0.83053676       0.81785542
Si       5.04434157       8.32206111       9.24503659
Si       5.24950238       2.68337726       3.61385329
24
Lattice="7.072004911278738 -1.8233944764658772 0.2703716266114265 0.6320366272574045 7.858977283586199 0.2239230848730465 2.1000526541468387 2.7735048812505028 9.718013091754045" Properties=species:S:1:pos:R:3 unique_starting_index=94 config_type=initial n_minim_iter=21 stress="0.0029109217019700584 0.0023189474980642366 0.0008252500300027284 0.0023189474980642366 -0.0017694231371276168 -0.00175807900341051 0.0008252500300027284 -0.00175807900341051 0.0022006583370418192" pbc="T T T"
Si       8.45889811       5.58169479       8.20369363
Si      -0.51744436       2.81406991       3.65102934
Si       2.75703187       6.59079455       1.40295543
Si       6.43482281       9.10382980       7.79187147
Si       5.30410900       1.54952904       1.83268229
Si       5.94416105       4.35502474       9.99725827
Si       4.48021361       0.69931488       3.59314426
Si       3.75069866       0.00473126       1.70964797
Si       7.15993667       0.60005043       5.93331118
Si       7.82261697       6.33203952       6.32980394
Si       4.81801707       6.10430884       9.50755163
Si       5.51486167       1.89153128       5.55441286
Si       1.34848735       5.87176344       2.84361502
Si       2.95748484       5.73841128       8.02755880
Si       7.19788403       2.90672731       4.60797290
Si       6.38510329       5.09598751       8.05005409
Si       5.27425503       2.44133931       9.27092470
Si       1.73637048       4.74994415       1.05526610
Si       7.07343234       2.52462370       2.51388606
Si       4.41755214       4.27199631       8.51582260
Si       6.37244998       4.49394150       3.43590174
Si       1.93045504       0.82940084       0.81889705
Si       5.06957266       8.33968968       9.25575567
Si       5.26256556       2.68670198       3.61724799
