18
Lattice="7.4541723329188665 -3.2275903347292397e-15 -8.682880492278428e-30 -3.72708616645943 6.4555026044948525 -1.7113544855187356e-29 9.013698925044786e-30 2.571786589903841e-29 7.741029776376408" Properties=species:S:1:pos:R:3 unique_starting_index=28 config_type=initial n_minim_iter=8 energy=-2928.8508794623067 free_energy=-2928.8508794623067 pbc="T T T"
Si      -1.40215803       4.30185154       1.44173889
Si       0.69950556       5.51888131       1.44173889
Si       0.70265247       3.09027237       1.44173889
Si      -0.69950556       5.51888131       5.31225378
Si      -0.70265247       3.09027237       5.31225378
Si       1.40215803       4.30185154       5.31225378
Si      -2.08308702       4.33030313       3.88483172
Si       1.06460985       6.09435732       3.88483172
Si       1.01847716       2.48634477       3.88483172
Si      -1.06460986       6.09435732       7.75534661
Si      -1.01847716       2.48634477       7.75534661
Si       2.08308701       4.33030313       7.75534661
Si       5.25831116       0.51000280       0.13120295
Si       1.53960596       1.64667016       0.13120295
Si       4.38334137       4.29882965       0.13120295
Si       5.91456637       1.64667016       4.00171784
Si       3.07083096       4.29882965       4.00171784
Si       2.19586117       0.51000280       4.00171784
