24
Lattice="8.213062396188484 -1.4144780855675525e-10 1.2798021981129446e-14 4.106531198216739 7.112720677895196 -3.027786510105658e-14 4.106531198135057 2.3709068925846415 11.410406158165678" Properties=species:S:1:pos:R:3 unique_starting_index=24 config_type=initial n_minim_iter=1 energy=-3916.638366379922 free_energy=-3916.638366379922 pbc="T T T"
Si       9.24296179       4.07247010      11.08993615
Si       8.27778051       5.96840466      11.08993615
Si       7.11844366       4.18456588      11.08993615
Si       8.17936490       3.50585642       9.31865066
Si       9.30028080       5.33060958       9.31865066
Si       7.15954026       5.38897465       9.31865066
Si       9.36178704       2.87018410       2.92484958
Si       9.25957811       6.67245335       2.92484958
Si       6.01782081       4.68280320       2.92484958
Si       7.57867755       5.81913888       1.99865781
Si       7.59726310       3.65375785       1.99865781
Si       9.46324531       4.75254392       1.99865781
Si      10.18836123       6.99128623       8.30903934
Si       5.27731188       5.32773654       8.30903934
Si       9.17351285       1.90641789       8.30903934
Si      10.30856795       3.44458286       9.30326309
Si       8.28874374       7.20519029       9.30326309
Si       6.04187427       3.57566750       9.30326309
Si       9.29735299       8.90130772       8.53276595
Si       4.06868886       3.60109002       8.53276595
Si      11.27314411       1.72304291       8.53276595
Si       4.47854787       1.11273319       1.63054410
Si       5.01013243       3.32216963       1.63054410
Si       2.83091206       2.67781715       1.63054410
