10
Lattice="4.67787111642165 1.6535413556278395e-40 -4.54883963449946e-43 4.823887201032442e-55 3.854970932164205 4.1946243411513e-14 1.2746307134837836e-56 -1.1038040089607314e-13 10.144251363834956" Properties=species:S:1:pos:R:3 unique_starting_index=72 config_type=initial n_minim_iter=1 energy=-1629.36556697835 free_energy=-1629.36556697835 pbc="T T T"
Si       4.17514506       3.20495049       3.81902074
Si       4.17514506       0.65002044       6.32523062
Si       1.83620950       1.27746503       1.25310494
Si       1.83620950       2.57750591       8.89114643
Si       0.88888466       1.31949327       3.45227947
Si       0.88888466       2.53547766       6.69197189
Si       3.22782022       3.24697874       1.61984621
Si       3.22782022       0.60799220       8.52440515
Si       0.19449162      -0.00000000      -0.00000000
Si       2.53342718       1.92748547       5.07212568
10
Lattice="4.697086884641439 1.6542357662928423e-40 -4.546907991064322e-43 4.825403005093904e-55 3.856589841131592 4.196386131657994e-14 1.271720308016898e-56 -1.1033352197773087e-13 10.13994365502883" Properties=species:S:1:pos:R:3 unique_starting_index=72 config_type=initial n_minim_iter=2 stress="0.0015554301537920282 1.2976255861962086e-16 1.3505128007718812e-17 1.2976255861962086e-16 0.0021235384019401963 -5.0242853846898326e-17 1.3505128007718812e-17 -5.0242853846898326e-17 0.0016106999903978798" pbc="T T T"
Si       4.19247695       3.20604041       3.81640106
Si       4.19247695       0.65054943       6.32354260
Si       1.84393351       1.27774549       1.25357077
Si       1.84393351       2.57884435       8.88637288
Si       0.89252891       1.31914969       3.45016015
Si       0.89252891       2.53744016       6.68978351
Si       3.24107236       3.24744461       1.61981168
Si       3.24107236       0.60914524       8.52013197
Si       0.19494233      -0.00000000      -0.00000000
Si       2.54348577       1.92829492       5.06997183
10
Lattice="4.704291189018835 1.6491542764521353e-40 -4.532944931982129e-43 4.814461568541397e-55 3.8447431488421357 4.183499517930036e-14 1.2492839527165881e-56 -1.0999459800537421e-13 10.108804992750308" Properties=species:S:1:pos:R:3 unique_starting_index=72 config_type=initial n_minim_iter=3 stress="0.0007723171694006902 4.330265700458608e-17 -2.3074509604547288e-17 4.330265700458608e-17 -0.0015010804895562776 -6.2164550546461e-17 -2.3074509604547288e-17 -6.2164550546461e-17 -0.0018587053917728082" pbc="T T T"
Si       4.19955728       3.19540084       3.80254495
Si       4.19955728       0.64934231       6.30626004
Si       1.84741168       1.27302926       1.25185755
Si       1.84741168       2.57171388       8.85694744
Si       0.89375046       1.31309317       3.43832553
Si       0.89375046       2.53164997       6.67047946
Si       3.24589605       3.23546475       1.61607697
Si       3.24589605       0.60927840       8.49272803
Si       0.19423616      -0.00000000      -0.00000000
Si       2.54638175       1.92237157       5.05440250
10
Lattice="4.6776231319349035 1.6528543456993827e-40 -4.568248294399308e-43 4.821471586363239e-55 3.8533692768470913 4.192890156712458e-14 1.2932378267076012e-56 -1.1085114029625464e-13 10.18753412174209" Properties=species:S:1:pos:R:3 unique_starting_index=72 config_type=initial n_minim_iter=4 stress="0.0020912626426148485 3.960195213420537e-17 6.121675807005028e-17 3.960195213420537e-17 -0.00013722870418533006 5.4188167328674143e-17 6.121675807005028e-17 5.4188167328674143e-17 0.0006842182635166774" pbc="T T T"
Si       4.18192897       3.19276309       3.81571732
Si       4.18192897       0.66060618       6.37181680
Si       1.84311740       1.26607846       1.27804974
Si       1.84311740       2.58729082       8.90948438
Si       0.88718590       1.29794133       3.45754364
Si       0.88718590       2.55542794       6.72999048
Si       3.22599746       3.22462597       1.63622342
Si       3.22599746       0.62874331       8.55131070
Si       0.18377411      -0.00000000      -0.00000000
Si       2.52258567       1.92668464       5.09376706
10
Lattice="4.65523180033024 1.657730508466665e-40 -4.575458334337986e-43 4.8308957472141354e-55 3.8647372814418333 4.205249785542156e-14 1.2989235590261946e-56 -1.110263588616358e-13 10.203613048096578" Properties=species:S:1:pos:R:3 unique_starting_index=72 config_type=initial n_minim_iter=5 stress="0.00035390588518601396 1.2156481657072752e-16 6.590174750392568e-17 1.2156481657072752e-16 0.002630227493283752 1.2080412103386689e-16 6.590174750392568e-17 1.2080412103386689e-16 -0.000524712347515159" pbc="T T T"
Si       4.16371812       3.19458738       3.81453807
Si       4.16371812       0.67014990       6.38907498
Si       1.83610222       1.26221874       1.28726846
Si       1.83610222       2.60251854       8.91634459
Si       0.88268898       1.29272187       3.46121811
Si       0.88268898       2.57201541       6.74239494
Si       3.21030488       3.22509051       1.64058841
Si       3.21030488       0.63964677       8.56302463
Si       0.17977919      -0.00000000      -0.00000000
Si       2.50739509       1.93236864       5.10180652
10
Lattice="4.625257307820504 1.656617078910901e-40 -4.604642096928427e-43 4.827936919152818e-55 3.862141496003583 4.202434388293996e-14 1.2955411420027767e-56 -1.1173427901628487e-13 10.268695013442937" Properties=species:S:1:pos:R:3 unique_starting_index=72 config_type=initial n_minim_iter=6 stress="-0.0033629105880578374 3.959623404820119e-17 -8.059209614491774e-17 3.959623404820119e-17 0.0013758579584363913 -3.8054751805579554e-17 -8.059209614491774e-17 -3.8054751805579554e-17 0.0037747861652695914" pbc="T T T"
Si       4.13936822       3.17678504       3.82682884
Si       4.13936822       0.68535646       6.44186617
Si       1.82673957       1.24571429       1.30751866
Si       1.82673957       2.61642721       8.96117635
Si       0.87661444       1.27536613       3.48189792
Si       0.87661444       2.58677536       6.78679710
Si       3.18924310       3.20643688       1.65244959
Si       3.18924310       0.65570461       8.61624542
Si       0.17448403      -0.00000000      -0.00000000
Si       2.48711269       1.93107075       5.13434751
10
Lattice="4.594210100793568 1.652824202058104e-40 -4.586635311606906e-43 4.820169445452995e-55 3.8532990017006448 4.192786843650702e-14 1.2454915443421322e-56 -1.1129801563013867e-13 10.228538540312853" Properties=species:S:1:pos:R:3 unique_starting_index=72 config_type=initial n_minim_iter=7 stress="-0.011031041922743704 1.709533010376241e-16 1.3872082709096832e-17 1.709533010376241e-16 -0.009068741510829679 1.2415897231346398e-17 1.3872082709096832e-17 1.2415897231346398e-17 -0.008566557174769956" pbc="T T T"
Si       4.11136091       3.11320214       3.78400785
Si       4.11136091       0.74009686       6.44453069
Si       1.81425586       1.18655264       1.33026142
Si       1.81425586       2.66674637       8.89827712
Si       0.87269932       1.22450124       3.47684173
Si       0.87269932       2.62879776       6.75169681
Si       3.16980437       3.15115074       1.63742754
Si       3.16980437       0.70214826       8.59111100
Si       0.16981774      -0.00000000      -0.00000000
Si       2.46692279       1.92664950       5.11426927
10
Lattice="4.6014091025171275 1.6719269723265882e-40 -4.621850064459162e-43 4.849329383035091e-55 3.8978340983634414 4.2412784324975235e-14 1.2134344497848452e-56 -1.121516678761857e-13 10.307070063372048" Properties=species:S:1:pos:R:3 unique_starting_index=72 config_type=initial n_minim_iter=8 stress="-0.005387203789959814 -6.119205384014256e-17 -3.3031134721255477e-18 -6.119205384014256e-17 -0.004946758061837688 1.6340558649675242e-16 -3.3031134721255477e-18 1.6340558649675242e-16 -0.01217953522681194" pbc="T T T"
Si       4.10837786       2.99785769       3.75640178
Si       4.10837786       0.89997641       6.55066828
Si       1.80767331       1.04894064       1.39713325
Si       1.80767331       2.84889346       8.90993682
Si       0.88187806       1.11189174       3.55381587
Si       0.88187806       2.78594236       6.75325419
Si       3.18258261       3.06080879       1.59971916
Si       3.18258261       0.83702531       8.70735090
Si       0.17331224      -0.00000000      -0.00000000
Si       2.47401679       1.94891705       5.15353503
10
Lattice="4.593498659987174 1.679427894065348e-40 -4.663357395584285e-43 4.850368281027737e-55 3.915321314615362 4.260362795545911e-14 1.1577126369621129e-56 -1.1315739448629387e-13 10.399634504901465" Properties=species:S:1:pos:R:3 unique_starting_index=72 config_type=initial n_minim_iter=9 stress="-0.0007890871563562456 -1.310578467379368e-16 1.8568005239985244e-17 -1.310578467379368e-16 -0.0021654627770243844 5.5444323338977145e-17 1.8568005239985244e-17 5.5444323338977145e-17 -0.007651428512324368" pbc="T T T"
Si       4.10126402       2.93842879       3.75387401
Si       4.10126402       0.97689252       6.64576049
Si       1.80451469       0.98076813       1.44594324
Si       1.80451469       2.93455318       8.95369126
Si       0.88271219       1.04652181       3.60613735
Si       0.88271219       2.86879951       6.79349716
Si       3.17946152       3.00418247       1.59367991
Si       3.17946152       0.91113885       8.80595460
Si       0.16841586      -0.00000000      -0.00000000
Si       2.46516519       1.95766066       5.19981725
10
Lattice="4.590441809228479 1.6828536311996627e-40 -4.7062702382667016e-43 4.8456607321676504e-55 3.9233078805570414 4.26902070295535e-14 1.0831619008392487e-56 -1.1419956629521477e-13 10.495333341942061" Properties=species:S:1:pos:R:3 unique_starting_index=72 config_type=initial n_minim_iter=10 stress="0.0043263595667842525 -8.000536264123264e-17 1.8238561190355207e-16 -8.000536264123264e-17 0.0006824108616046356 -2.4155332890361265e-17 1.8238561190355207e-16 -2.4155332890361265e-17 -0.00031811051088543967" pbc="T T T"
Si       4.10216807       2.93182146       3.77465144
Si       4.10216807       0.99148642       6.72068191
Si       1.80694717       0.97016752       1.47301524
Si       1.80694717       2.95314036       9.02231811
Si       0.88093615       1.02236752       3.64782583
Si       0.88093615       2.90094037       6.84750751
Si       3.17615705       2.98402146       1.59984084
Si       3.17615705       0.93928642       8.89549250
Si       0.16341437      -0.00000000      -0.00000000
Si       2.45863528       1.96165394       5.24766667
10
Lattice="4.555820326985575 1.6887961068578882e-40 -4.7444997509379714e-43 4.840304231597022e-55 3.9371618255155902 4.2842292408809375e-14 9.390938539581636e-57 -1.1512371694171636e-13 10.58058800405679" Properties=species:S:1:pos:R:3 unique_starting_index=72 config_type=initial n_minim_iter=11 stress="0.004276215080863473 -4.1694452721561057e-17 2.023161277077786e-16 -4.1694452721561057e-17 0.0016518256020439709 -1.7178681233125475e-16 2.023161277077786e-16 -1.7178681233125475e-16 0.0025966199168294523" pbc="T T T"
Si       4.07536403       2.92056115       3.78303608
Si       4.07536403       1.01660068       6.79755193
Si       1.79745387       0.95198024       1.50725793
Si       1.79745387       2.98518159       9.07333008
Si       0.87280614       0.98756624       3.69157450
Si       0.87280614       2.94959558       6.88901350
Si       3.15071631       2.95614716       1.59871950
Si       3.15071631       0.98101467       8.98186850
Si       0.15688402      -0.00000000      -0.00000000
Si       2.43479418       1.96858091       5.29029400
10
Lattice="4.529220986742352 1.6920765768469525e-40 -4.756775305303816e-43 4.823587441392384e-55 3.9448097240145543 4.292539562413032e-14 7.56843826668273e-57 -1.1542189551831428e-13 10.60796340506519" Properties=species:S:1:pos:R:3 unique_starting_index=72 config_type=initial n_minim_iter=12 stress="0.0005222622376452053 -9.240554095566161e-17 2.6089737964947837e-16 -9.240554095566161e-17 0.0010783920368566196 -7.459440954721099e-17 2.6089737964947837e-16 -7.459440954721099e-17 0.0024298241883823784" pbc="T T T"
Si       4.05205639       2.92006921       3.78323011
Si       4.05205639       1.02474051       6.82473330
Si       1.78744590       0.94766435       1.52075159
Si       1.78744590       2.99714537       9.08721181
Si       0.86707747       0.97499159       3.71243700
Si       0.86707747       2.96981814       6.89552640
Si       3.13168796       2.94739645       1.59154470
Si       3.13168796       0.99741328       9.01641871
Si       0.15626050      -0.00000000      -0.00000000
Si       2.42087099       1.97240486       5.30398170
10
Lattice="4.518256204898387 1.6923544817349669e-40 -4.742532256650974e-43 4.781276149646191e-55 3.945457615439558 4.293240162483312e-14 5.154925758142499e-57 -1.1507637365621708e-13 10.576200345179442" Properties=species:S:1:pos:R:3 unique_starting_index=72 config_type=initial n_minim_iter=13 stress="-0.0032722778833950716 -4.554466895595083e-18 3.1009018851584936e-16 -4.554466895595083e-18 -0.0007435144379710782 -1.667118902652269e-16 3.1009018851584936e-16 -1.667118902652269e-16 0.0008695370739293242" pbc="T T T"
Si       4.03838086       2.93955656       3.77210267
Si       4.03838086       1.00590106       6.80409767
Si       1.77925275       0.96682775       1.51599750
Si       1.77925275       2.97862986       9.06020284
Si       0.86460675       0.98719867       3.71837620
Si       0.86460675       2.95825895       6.85782414
Si       3.12373486       2.95992748       1.56972397
Si       3.12373486       0.98553014       9.00647637
Si       0.16435727      -0.00000000      -0.00000000
Si       2.42348537       1.97272881       5.28810017
10
Lattice="4.522677854460433 1.6945033949012298e-40 -4.728369526620622e-43 4.740483296509881e-55 3.950467467635571 4.2986498457675326e-14 3.676928964393188e-57 -1.1473378446176937e-13 10.54461640180723" Properties=species:S:1:pos:R:3 unique_starting_index=72 config_type=initial n_minim_iter=14 stress="-0.0028223883228747143 8.226238077979224e-17 3.7061347955973114e-16 8.226238077979224e-17 0.001994796286520772 -1.0908466813277353e-16 3.7061347955973114e-16 -1.0908466813277353e-16 -0.004345458364125053" pbc="T T T"
Si       4.03816327       2.91779844       3.73408497
Si       4.03816327       1.03266903       6.81053143
Si       1.77682434       0.94256471       1.53822323
Si       1.77682434       3.00790276       9.00639317
Si       0.86625917       0.96546387       3.72640555
Si       0.86625917       2.98500360       6.81821085
Si       3.12759810       2.94069760       1.54590265
Si       3.12759810       1.00976987       8.99871375
Si       0.17124475      -0.00000000      -0.00000000
Si       2.43258368       1.97523373       5.27230820
10
Lattice="4.559857432251261 1.6816233039207043e-40 -4.7340492034490754e-43 4.6844545430495846e-55 3.9204395665101694 4.265988939380254e-14 2.7308101743125036e-57 -1.148712947786307e-13 10.557282504383041" Properties=species:S:1:pos:R:3 unique_starting_index=72 config_type=initial n_minim_iter=15 stress="0.002352860424577061 2.587441169389184e-17 2.772928070981631e-16 2.587441169389184e-17 -0.0015123145318353055 -1.2964780708431418e-16 2.772928070981631e-16 -1.2964780708431418e-16 -0.001058086491966142" pbc="T T T"
Si       4.06768226       2.90732838       3.73161308
Si       4.06768226       1.01311118       6.82566943
Si       1.78775354       0.94710860       1.54702818
Si       1.78775354       2.97333097       9.01025433
Si       0.87238106       0.97624042       3.73406058
Si       0.87238106       2.94419915       6.82322193
Si       3.15230977       2.93646020       1.54458068
Si       3.15230977       0.98397936       9.01270183
Si       0.18200633      -0.00000000      -0.00000000
Si       2.46193505       1.96021978       5.27864125
10
Lattice="4.532906298745177 1.686240452833332e-40 -4.748502189379276e-43 4.665505885198422e-55 3.9312037211453554 4.2777173112533923e-14 1.9712005068745627e-57 -1.1522159129602884e-13 10.589513740041882" Properties=species:S:1:pos:R:3 unique_starting_index=72 config_type=initial n_minim_iter=16 stress="-0.001322914231193594 -2.6990317720536127e-17 4.71126291845966e-16 -2.6990317720536127e-17 -0.0014136436974006225 -2.0478076210581156e-16 4.71126291845966e-16 -2.0478076210581156e-16 -0.0011394491163428876" pbc="T T T"
Si       4.04391327       2.92126079       3.73944395
Si       4.04391327       1.00994293       6.85006979
Si       1.77746012       0.95565893       1.55531292
Si       1.77746012       2.97554479       9.03420082
Si       0.86587101       0.98128824       3.74658299
Si       0.86587101       2.94991548       6.84293075
Si       3.13232416       2.94689010       1.54817388
Si       3.13232416       0.98431362       9.04133986
Si       0.18309195      -0.00000000      -0.00000000
Si       2.44954509       1.96560186       5.29475687
10
Lattice="4.5283799594888405 1.6886334970490792e-40 -4.763137589550912e-43 4.636273889989188e-55 3.9367827263874626 4.2837903216961004e-14 1.3405955717045669e-57 -1.1557667333489613e-13 10.62215177305255" Properties=species:S:1:pos:R:3 unique_starting_index=72 config_type=initial n_minim_iter=17 stress="0.00016235537341770899 1.0145386670130575e-16 5.511962329324441e-16 1.0145386670130575e-16 -0.00012055674091890483 -1.7866539131346196e-16 5.511962329324441e-16 -1.7866539131346196e-16 0.0003538694780714581" pbc="T T T"
Si       4.03904240       2.93888911       3.75031249
Si       4.03904240       0.99789361       6.87183928
Si       1.77485242       0.97049775       1.56076340
Si       1.77485242       2.96628498       9.06138838
Si       0.86330600       1.00047172       3.75085283
Si       0.86330600       2.93631101       6.87129894
Si       3.12749598       2.96886308       1.56022305
Si       3.12749598       0.96791965       9.06192872
Si       0.18797554      -0.00000000      -0.00000000
Si       2.45216552       1.96839136       5.31107589
10
Lattice="4.528349738082284 1.6888383235726346e-40 -4.761678858018875e-43 4.615432434342809e-55 3.9372602471290845 4.28431520680873e-14 1.042014573825108e-57 -1.1554113527372225e-13 10.618898693031651" Properties=species:S:1:pos:R:3 unique_starting_index=72 config_type=initial n_minim_iter=18 stress="5.8773544533094215e-05 7.631551089317104e-18 3.798338053143924e-16 7.631551089317104e-18 -3.8059672330536173e-06 -1.145691868595825e-16 3.798338053143924e-16 -1.145691868595825e-16 -8.141218253414353e-05" pbc="T T T"
Si       4.03892530       2.93764517       3.74923871
Si       4.03892530       0.99961507       6.86965998
Si       1.77475043       0.96901505       1.56021064
Si       1.77475043       2.96824520       9.05868806
Si       0.86359663       0.99970991       3.74936370
Si       0.86359663       2.93755034       6.86953499
Si       3.12777150       2.96834003       1.56008564
Si       3.12777150       0.96892021       9.05881305
Si       0.18756179      -0.00000000      -0.00000000
Si       2.45173666       1.96863012       5.30944935
