10
Lattice="5.292607525114128 -0.21231592428867535 1.7935846212158805e-17 -2.809543232385392 5.015573289319847 -4.237013850355847e-16 1.1197167542867175e-27 7.744319011138405e-16 9.16735251477737" Properties=species:S:1:pos:R:3 unique_starting_index=14 config_type=initial n_minim_iter=1 energy=-1628.7880551929409 free_energy=-1628.7880551929409 pbc="T T T"
Si       0.31924132       1.87348058       1.51272094
Si       2.16382297       2.92977678       1.51272094
Si       2.14614047       0.86856703       1.06792250
Si       0.33692382       3.93469033       1.06792250
Si       1.67129298       0.32787989       6.23296486
Si       0.81177131       4.47537748       6.23296486
Si       0.61763644       3.24478160       3.10916083
Si       1.86542785       1.55847577       3.10916083
Si      -0.64535036       3.34476825       4.89145989
Si       3.12841465       1.45848912       4.89145989
10
Lattice="5.2669657326761765 -0.1971150978101206 1.665172356832583e-17 -2.7821426031500014 5.00021030042234 -4.224035633712222e-16 1.1207828250754665e-27 7.702190640393526e-16 9.1174829749335" Properties=species:S:1:pos:R:3 unique_starting_index=14 config_type=initial n_minim_iter=2 stress="-0.045486747619723135 0.0038297255533994816 -8.098220163802286e-16 0.0038297255533994816 -0.026981948027433884 -1.586590072908203e-16 -8.098220163802286e-16 -1.586590072908203e-16 0.0014673296946853102" pbc="T T T"
Si       0.32478741       1.87109047       1.50485932
Si       2.16003572       2.93200473       1.50485932
Si       2.13783059       0.87234377       1.06231350
Si       0.34699254       3.93075143       1.06231350
Si       1.66591515       0.33164236       6.19878132
Si       0.81890798       4.47145285       6.19878132
Si       0.62363456       3.24233945       3.09131124
Si       1.86118857       1.56075575       3.09131124
Si      -0.63273084       3.33860975       4.86549580
Si       3.11755397       1.46448545       4.86549580
10
Lattice="5.286897625581133 -0.18204275888193977 1.537845518785824e-17 -2.7779470605580605 5.012496023157312 -4.234414263308668e-16 1.256281881003964e-27 7.642117839872702e-16 9.046371681847663" Properties=species:S:1:pos:R:3 unique_starting_index=14 config_type=initial n_minim_iter=3 stress="-0.021711697162845565 0.014798897741598514 -3.8654479548460015e-16 0.014798897741598514 -0.007948436715353094 2.228386485114275e-16 -3.8654479548460015e-16 2.228386485114275e-16 -0.014931465852895077" pbc="T T T"
Si       0.33343284       1.87787011       1.49337318
Si       2.17551772       2.95258316       1.49337318
Si       2.14883625       0.87874905       1.05383329
Si       0.36011431       3.95170421       1.05383329
Si       1.67545119       0.33785639       6.14975904
Si       0.83349937       4.49259688       6.14975904
Si       0.63538568       3.26029937       3.06589334
Si       1.87356488       1.57015390       3.06589334
Si      -0.62483987       3.35213465       4.82947411
Si       3.13379043       1.47831861       4.82947411
10
Lattice="5.30291354924584 -0.20074750927354965 1.695857937123595e-17 -2.8034234151558803 5.03122344714371 -4.2502346591495413e-16 1.3627944434478887e-27 7.604484357708415e-16 9.001822974997216" Properties=species:S:1:pos:R:3 unique_starting_index=14 config_type=initial n_minim_iter=4 stress="-0.013199566781589638 -0.010795297574994847 -8.387924873724406e-16 -0.010795297574994847 0.01035609981028656 8.665357997626621e-16 -8.387924873724406e-16 8.665357997626621e-16 -0.01961876631635376" pbc="T T T"
Si       0.33807442       1.87777277       1.48450969
Si       2.16141571       2.95270317       1.48450969
Si       2.15255045       0.86285238       1.04671940
Si       0.34693968       3.96762355       1.04671940
Si       1.68355536       0.33291214       6.11766740
Si       0.81593477       4.49756379       6.11766740
Si       0.62577163       3.27248946       3.04978645
Si       1.87371850       1.55798648       3.04978645
Si      -0.63844736       3.36440405       4.81194136
Si       3.13793749       1.46607189       4.81194136
10
Lattice="5.332514950379548 -0.18112007001311795 1.5300509053121286e-17 -2.801888941338853 4.997523307971685 -4.221765738810006e-16 1.3752677404389209e-27 7.627228460962238e-16 9.028746350940379" Properties=species:S:1:pos:R:3 unique_starting_index=14 config_type=initial n_minim_iter=5 stress="-0.010416012134124129 0.007304890287941337 -7.735932856819392e-16 0.007304890287941337 0.02339365811300079 1.4863903824610034e-16 -7.735932856819392e-16 1.4863903824610034e-16 0.010543133386025918" pbc="T T T"
Si       0.35469551       1.86542403       1.48554363
Si       2.17593050       2.95097921       1.48554363
Si       2.16775976       0.85653829       1.04713260
Si       0.36286625       3.95986495       1.04713260
Si       1.69995054       0.33760727       6.13393199
Si       0.83067547       4.47879597       6.13393199
Si       0.64242256       3.26781184       3.05936651
Si       1.88820345       1.54859139       3.05936651
Si      -0.63086681       3.35081881       4.83403087
Si       3.16149282       1.46558443       4.83403087
10
Lattice="5.3590242576573095 -0.17857447863677706 1.5085464724283153e-17 -2.814864260062983 4.964733375710806 -4.1940657354149255e-16 1.4340287366600255e-27 7.614843123389379e-16 9.014085183782004" Properties=species:S:1:pos:R:3 unique_starting_index=14 config_type=initial n_minim_iter=6 stress="-0.0020779093316921726 0.006564802411865576 -8.327893139907831e-16 0.006564802411865576 -0.003528560509554669 6.6056942752809994e-18 -8.327893139907831e-16 6.6056942752809994e-18 -0.0018947238152536884" pbc="T T T"
Si       0.35968368       1.85240952       1.48206196
Si       2.18447631       2.93374937       1.48206196
Si       2.17847862       0.84858301       1.04424943
Si       0.36568138       3.93757589       1.04424943
Si       1.71009306       0.33659299       6.12302025
Si       0.83406693       4.44956590       6.12302025
Si       0.64754130       3.24963822       3.05398363
Si       1.89661869       1.53652067       3.05398363
Si      -0.63358414       3.33121881       4.82979966
Si       3.17774414       1.45494008       4.82979966
10
Lattice="5.382480822861928 -0.18763974295680041 1.5851272504718747e-17 -2.836104350823701 4.959808014657367 -4.189904930298497e-16 1.5097300066275885e-27 7.593520186184232e-16 8.988844115879056" Properties=species:S:1:pos:R:3 unique_starting_index=14 config_type=initial n_minim_iter=7 stress="0.010189526372298306 -0.0005146450272777237 -1.160149348964036e-15 -0.0005146450272777237 0.0007537492148115613 8.339066719000931e-16 -1.160149348964036e-15 8.339066719000931e-16 -0.001563623150789963" pbc="T T T"
Si       0.36183780       1.84414445       1.47410657
Si       2.18453867       2.92802382       1.47410657
Si       2.17879459       0.84831556       1.03693497
Si       0.36758188       3.92385271       1.03693497
Si       1.71947688       0.33634684       6.10391596
Si       0.82689959       4.43582143       6.10391596
Si       0.64951461       3.24605085       3.04643142
Si       1.89686186       1.52611742       3.04643142
Si      -0.64229228       3.33022845       4.82543029
Si       3.18866875       1.44193982       4.82543029
10
Lattice="5.405073483065281 -0.23873212097930022 2.0167411475173046e-17 -2.8955972201364264 4.982699440604266 -4.209242956719663e-16 1.6154331767009377e-27 7.536006049374626e-16 8.920761645879955" Properties=species:S:1:pos:R:3 unique_starting_index=14 config_type=initial n_minim_iter=8 stress="0.01689904221365204 -0.0031350836389274074 -5.00958224095327e-16 -0.0031350836389274074 -0.0016604794515580267 1.2886186933652105e-15 -5.00958224095327e-16 1.2886186933652105e-15 0.01289949865248754" pbc="T T T"
Si       0.34348032       1.83288107       1.45677400
Si       2.16599594       2.91108625       1.45677400
Si       2.16774761       0.83388500       1.00675013
Si       0.34172865       3.91008232       1.00675013
Si       1.74651897       0.32677529       6.05166861
Si       0.76295729       4.41719203       6.05166861
Si       0.64499328       3.23622956       3.02757902
Si       1.86448298       1.50773776       3.02757902
Si      -0.67566377       3.34752090       4.81917452
Si       3.18514003       1.39644642       4.81917452
10
Lattice="5.405525282283605 -0.2649902429257577 2.2385623032802185e-17 -2.9203396378154705 4.9921993333122945 -4.2172681962353855e-16 2.1226618424034202e-27 7.486418593901279e-16 8.862062400137114" Properties=species:S:1:pos:R:3 unique_starting_index=14 config_type=initial n_minim_iter=9 stress="0.014843813178668579 -0.009077852192070242 -1.5622971133821613e-16 -0.009077852192070242 -0.0031613755208025835 9.906696265431356e-16 -1.5622971133821613e-16 9.906696265431356e-16 0.010264535961013038" pbc="T T T"
Si       0.33236821       1.82389307       1.44291132
Si       2.15281743       2.90331602       1.44291132
Si       2.15808951       0.82314939       0.98737739
Si       0.32709614       3.90405970       0.98737739
Si       1.75471480       0.32622406       6.00764839
Si       0.73047084       4.40098503       6.00764839
Si       0.64092647       3.23267530       3.01059436
Si       1.84425917       1.49453379       3.01059436
Si      -0.68950425       3.35600935       4.80575206
Si       3.17468989       1.37119974       4.80575206
10
Lattice="5.378625073675665 -0.253940656469671 2.1452185354837173e-17 -2.895153047374804 5.003057814015428 -4.226441132302165e-16 2.370546522106697e-27 7.444063877889336e-16 8.811924923641005" Properties=species:S:1:pos:R:3 unique_starting_index=14 config_type=initial n_minim_iter=10 stress="-0.015761974646837183 -0.015262374842764818 -1.0204670348245534e-16 -0.015262374842764818 -0.005087078212021321 1.0539210248813017e-15 -1.0204670348245534e-16 1.0539210248813017e-15 -0.0043483688431471814" pbc="T T T"
Si       0.33324178       1.83227267       1.43304241
Si       2.15023024       2.91684449       1.43304241
Si       2.14974637       0.82829282       0.96927999
Si       0.33372565       3.92082433       0.96927999
Si       1.74562787       0.34598115       5.97567589
Si       0.73784415       4.40313601       5.97567589
Si       0.65359547       3.24884300       2.99340775
Si       1.82987655       1.50027416       2.99340775
Si      -0.67652290       3.36591462       4.79091820
Si       3.15999492       1.38320254       4.79091820
10
Lattice="5.349534094537173 -0.22306751609965594 1.8844110149985278e-17 -2.8504026510780025 5.004317363594216 -4.227505164005502e-16 2.8210051814511612e-27 7.422858455066783e-16 8.786822963603894" Properties=species:S:1:pos:R:3 unique_starting_index=14 config_type=initial n_minim_iter=11 stress="-0.0133611498275283 0.003175956502153235 -8.784395304580106e-16 0.003175956502153235 0.0075991987970001175 1.3585113266852006e-16 -8.784395304580106e-16 1.3585113266852006e-16 0.0011433940236122906" pbc="T T T"
Si       0.34188640       1.84604806       1.42978944
Si       2.15724504       2.93520179       1.42978944
Si       2.14785814       0.83925908       0.95964563
Si       0.35127330       3.94199077       0.95964563
Si       1.72968215       0.36753707       5.96423489
Si       0.76944929       4.41371278       5.96423489
Si       0.67038782       3.26866545       2.98368765
Si       1.82874362       1.51258440       2.98368765
Si      -0.65389271       3.36837423       4.77892606
Si       3.15302415       1.41287562       4.77892606
10
Lattice="5.345348080021069 -0.1942443063040085 1.6409207257300353e-17 -2.8219701424986376 4.976794222913834 -4.204254396534197e-16 3.202461628876406e-27 7.377805984123062e-16 8.733492014518907" Properties=species:S:1:pos:R:3 unique_starting_index=14 config_type=initial n_minim_iter=12 stress="-0.00484091301673261 0.003100076143071936 -2.9640469447436284e-16 0.003100076143071936 0.005449780931490632 1.2929587495589491e-16 -2.9640469447436284e-16 1.2929587495589491e-16 -0.006305119270410565" pbc="T T T"
Si       0.34697008       1.85554167       1.41872737
Si       2.17640785       2.92700824       1.41872737
Si       2.15644962       0.84778688       0.93967868
Si       0.36692831       3.93476304       0.93967868
Si       1.73403885       0.38738740       5.93847006
Si       0.78933908       4.39516252       5.93847006
Si       0.68148274       3.28448909       2.96514001
Si       1.84189520       1.49806082       2.96514001
Si      -0.63624453       3.34691589       4.75645102
Si       3.15962246       1.43563403       4.75645102
10
Lattice="5.363061069015915 -0.1810575802808047 1.52952300992179e-17 -2.8194071572973627 4.963565315538336 -4.1930789913390807e-16 3.650634383249607e-27 7.357089662526991e-16 8.708969028999634" Properties=species:S:1:pos:R:3 unique_starting_index=14 config_type=initial n_minim_iter=13 stress="-0.0009180930673302818 0.003539103585780869 -1.1322618129128411e-15 0.003539103585780869 -0.001195590755509898 -1.0070245748739693e-16 -1.1322618129128411e-15 -1.0070245748739693e-16 -0.005479277452560943" pbc="T T T"
Si       0.35689299       1.85789307       1.41237100
Si       2.18676092       2.92461467       1.41237100
Si       2.16171997       0.85203483       0.91990499
Si       0.38193394       3.93047291       0.91990499
Si       1.74375960       0.40262928       5.93019723
Si       0.79989431       4.37987845       5.93019723
Si       0.69748912       3.28440723       2.95718700
Si       1.84616478       1.49810051       2.95718700
Si      -0.63050707       3.33573117       4.75382827
Si       3.17416098       1.44677657       4.75382827
10
Lattice="5.369642923823373 -0.1880413450076473 1.5885198706679176e-17 -2.829906159091244 4.9539216373560855 -4.1849322859287753e-16 4.2525893720044914e-27 7.326721360951401e-16 8.673020493623772" Properties=species:S:1:pos:R:3 unique_starting_index=14 config_type=initial n_minim_iter=14 stress="0.013360028619979302 -0.0042052390946527175 -1.600315683218417e-15 -0.0042052390946527175 -0.0007052978535438041 -3.8411995802319935e-16 -1.600315683218417e-15 -3.8411995802319935e-16 -0.0024029925829178863" pbc="T T T"
Si       0.35268495       1.85121089       1.40271853
Si       2.18705181       2.91466940       1.40271853
Si       2.15470352       0.84918812       0.89052727
Si       0.38503325       3.91669217       0.89052727
Si       1.75015363       0.41059274       5.92413185
Si       0.78958313       4.35528755       5.92413185
Si       0.69934282       3.27800932       2.94395358
Si       1.84039394       1.48787097       2.94395358
Si      -0.64031655       3.31453858       4.74622252
Si       3.18005331       1.45134172       4.74622252
10
Lattice="5.367649345812847 -0.18791729875646532 1.587471963217543e-17 -2.8289829134761395 4.947625218534773 -4.17961325014747e-16 5.111642906440674e-27 7.282070703686952e-16 8.620165192242517" Properties=species:S:1:pos:R:3 unique_starting_index=14 config_type=initial n_minim_iter=15 stress="0.002639233972686441 -0.002815926315609596 -2.212586145067168e-15 -0.002815926315609596 -0.002799516875482736 -1.6653781088542355e-15 -2.212586145067168e-15 -1.6653781088542355e-15 -0.0017295367469482442" pbc="T T T"
Si       0.35247801       1.84942167       1.38830354
Si       2.18618842       2.91028625       1.38830354
Si       2.14900787       0.84969930       0.85792607
Si       0.38965856       3.91000862       0.85792607
Si       1.75587669       0.41848137       5.91041282
Si       0.78278974       4.34122655       5.91041282
Si       0.70642737       3.28087476       2.92401810
Si       1.83223906       1.47883316       2.92401810
Si      -0.64410358       3.29830328       4.72994908
Si       3.18277001       1.46140464       4.72994908
10
Lattice="5.359272160797287 -0.1955174919110554 1.6516762363163102e-17 -2.831795825210032 4.946191621415796 -4.1784021880023615e-16 7.384052799164208e-27 7.214048892450079e-16 8.539644242388409" Properties=species:S:1:pos:R:3 unique_starting_index=14 config_type=initial n_minim_iter=16 stress="-0.009300832317648219 0.0028242803133681975 -1.596404104428594e-15 0.0028242803133681975 0.0009678088475465625 -8.680791694304216e-16 -1.596404104428594e-15 -8.680791694304216e-16 0.002277446231916901" pbc="T T T"
Si       0.34918248       1.84184374       1.36422333
Si       2.17829385       2.90883039       1.36422333
Si       2.14360327       0.84883492       0.81178273
Si       0.38387306       3.90183921       0.81178273
Si       1.75780421       0.41797580       5.89428097
Si       0.76967212       4.33269833       5.89428097
Si       0.71451050       3.28294261       2.89373366
Si       1.81296584       1.46773152       2.89373366
Si      -0.64761776       3.28962839       4.69890204
Si       3.17509409       1.46104573       4.69890204
10
Lattice="5.367195155259386 -0.1964531083022042 1.659580057947748e-17 -2.837162246717891 4.939363519338302 -4.1726340012961387e-16 9.602514135053294e-27 7.178718674718149e-16 8.497822029183084" Properties=species:S:1:pos:R:3 unique_starting_index=14 config_type=initial n_minim_iter=17 stress="-0.006267348451817056 0.0025708129436902297 -1.8204167556255808e-15 0.0025708129436902297 -0.00361929347281352 -9.23485527326686e-16 -1.8204167556255808e-15 -9.23485527326686e-16 0.002002515405497462" pbc="T T T"
Si       0.35109578       1.83774977       1.34962463
Si       2.17893713       2.90516064       1.34962463
Si       2.14898174       0.85141369       0.79029567
Si       0.38105116       3.89149672       0.79029567
Si       1.76277976       0.41533633       5.88645083
Si       0.76725315       4.32757408       5.88645083
Si       0.72007594       3.28211688       2.87869630
Si       1.80995697       1.46079353       2.87869630
Si      -0.64515070       3.28875248       4.68114742
Si       3.17518360       1.45415793       4.68114742
10
Lattice="5.369873051540208 -0.20517245739133688 1.7332386425350364e-17 -2.8466431155129834 4.94443936204119 -4.176921929007795e-16 1.2686648390519457e-26 7.164538235217722e-16 8.481035906588342" Properties=species:S:1:pos:R:3 unique_starting_index=14 config_type=initial n_minim_iter=18 stress="-0.0024248212854209774 0.0018778347570258156 -1.2100316091269303e-15 0.0018778347570258156 -0.000919445750399982 -3.7217199684947663e-16 -1.2100316091269303e-15 -3.7217199684947663e-16 0.0015054352088624092" pbc="T T T"
Si       0.34971979       1.83199066       1.34122119
Si       2.17351015       2.90727624       1.34122119
Si       2.15448663       0.85298393       0.78181027
Si       0.36874330       3.88628297       0.78181027
Si       1.76172160       0.40466834       5.89133228
Si       0.76150834       4.33459857       5.89133228
Si       0.71729671       3.28070150       2.86940982
Si       1.80593322       1.45856540       2.86940982
Si      -0.64418085       3.30320971       4.67165314
Si       3.16741078       1.43605719       4.67165314
10
Lattice="5.361506635611031 -0.2182825834305734 1.8439892638884902e-17 -2.85430156236865 4.95252089090276 -4.183748974965066e-16 2.0796580096474936e-26 7.146989959779762e-16 8.460263101594908" Properties=species:S:1:pos:R:3 unique_starting_index=14 config_type=initial n_minim_iter=19 stress="-0.006639161464357898 0.003657858811376368 -8.397245577532666e-16 0.003657858811376368 0.0018022837588533387 -1.1498292573243462e-15 -8.397245577532666e-16 -1.1498292573243462e-15 -0.006170472190800061" pbc="T T T"
Si       0.34639801       1.82027754       1.32650641
Si       2.16080706       2.91396077       1.32650641
Si       2.16267378       0.85855114       0.76511184
Si       0.34453129       3.87568717       0.76511184
Si       1.75305684       0.39441056       5.91268786
Si       0.75414824       4.33982775       5.91268786
Si       0.71107040       3.28031341       2.84817220
Si       1.79613467       1.45392490       2.84817220
Si      -0.64169120       3.32820646       4.66484810
Si       3.14889627       1.40603185       4.66484810
10
Lattice="5.362532556135172 -0.22746740428173617 1.921580021902107e-17 -2.86358905955327 4.9515526766926445 -4.1829310550390844e-16 2.749587394635683e-26 7.172767686359588e-16 8.490777534802326" Properties=species:S:1:pos:R:3 unique_starting_index=14 config_type=initial n_minim_iter=20 stress="0.001422671843863853 0.0003147293370271235 -5.929131100733993e-16 0.0003147293370271235 0.0010455067095403964 -6.31027149929118e-16 -5.929131100733993e-16 -6.31027149929118e-16 -0.0004560511205014429" pbc="T T T"
Si       0.34402403       1.81199475       1.32595879
Si       2.15491946       2.91209052       1.32595879
Si       2.16674925       0.85830504       0.76894883
Si       0.33219425       3.86578023       0.76894883
Si       1.75041869       0.38955134       5.94568227
Si       0.74852480       4.33453393       5.94568227
Si       0.69934698       3.27171497       2.85005892
Si       1.79959651       1.45237030       2.85005892
Si      -0.64463057       3.33545128       4.68264543
Si       3.14357406       1.38863399       4.68264543
10
Lattice="5.362316293800775 -0.23150647905175092 1.9557009791195867e-17 -2.8674240810774756 4.948507278057916 -4.1803583886267566e-16 4.3377117150143945e-26 7.180278061216062e-16 8.499667955048553" Properties=species:S:1:pos:R:3 unique_starting_index=14 config_type=initial n_minim_iter=21 stress="0.012336441740861044 -0.005444887304756482 -6.962234996634305e-16 -0.005444887304756482 0.0037481325713026536 -6.679504641441033e-16 -6.962234996634305e-16 -6.679504641441033e-16 -0.00115597065794852" pbc="T T T"
Si       0.34409741       1.80488635       1.32063862
Si       2.15079480       2.91211444       1.32063862
Si       2.17041112       0.85950556       0.76173762
Si       0.32448109       3.85749523       0.76173762
Si       1.74918777       0.39207994       5.96939793
Si       0.74570444       4.32492085       5.96939793
Si       0.69450176       3.26731616       2.84345339
Si       1.80039045       1.44968464       2.84345339
Si      -0.64586431       3.33821467       4.69437298
Si       3.14075652       1.37878613       4.69437298
