14
Lattice="7.989073757192767 -1.5337814321732035 1.9229189813954974 -1.7346222855620812 7.579602317419007 -1.292266795346398 -1.879164457590157 -0.40425171889210765 5.537727309059902" Properties=species:S:1:pos:R:3 unique_starting_index=20 config_type=initial n_minim_iter=1 energy=-2284.9145719648027 free_energy=-2284.9145719648027 pbc="T T T"
Si       3.21149108       3.25523932       5.75106028
Si       5.15605630       1.66999872       1.41679979
Si       1.16379594       2.38632985       0.41731921
Si      -0.78076929       3.97157044       4.75157971
Si       4.65135030       3.17527447       4.13243255
Si       5.58094423       1.37600625       3.48207481
Si      -0.27606328       2.46629469       2.03594694
Si      -1.20565722       4.26556291       2.68630468
Si       0.63060399       4.25853919       1.30166490
Si       0.28427902       2.26112707       4.09064538
Si       3.74468303       1.38302998       4.86671460
Si       4.09100800       3.38044209       2.07773411
Si       2.63916222       3.90759986       0.61126370
Si       1.73612480       1.73396931       5.55711580
14
Lattice="7.979915574199894 -1.5358233176344702 1.9236884211715546 -1.7352141382308044 7.5767298002881995 -1.292403291865808 -1.8754126143840468 -0.4038140959800814 5.534083672003063" Properties=species:S:1:pos:R:3 unique_starting_index=20 config_type=initial n_minim_iter=2 stress="0.0012095870082705126 0.0025470269341178148 -0.0013097203913206956 0.0025470269341178148 -0.004769588830143022 0.0005577313493543031 -0.0013097203913206956 0.0005577313493543031 -0.006431366490202155" pbc="T T T"
Si       3.20753602       3.25211647       5.74820060
Si       5.14931690       1.66736385       1.41677072
Si       1.16175281       2.38497591       0.41716820
Si      -0.78002808       3.96972853       4.74859808
Si       4.64535664       3.17193653       4.13075944
Si       5.57431024       1.37330282       3.48119548
Si      -0.27606782       2.46515586       2.03460937
Si      -1.20502142       4.26378956       2.68417332
Si       0.62883506       4.25631984       1.30058778
Si       0.28401718       2.25967274       4.08817059
Si       3.74045376       1.38077255       4.86478102
Si       4.08527164       3.37741965       2.07719821
Si       2.63436386       3.90489268       0.61120415
Si       1.73492496       1.73219971       5.55416465
14
Lattice="7.973940635335823 -1.5421965332190475 1.9284039281207546 -1.7389633941146236 7.582466545036209 -1.295151133165721 -1.8713032850166789 -0.4036001783114851 5.53794022307182" Properties=species:S:1:pos:R:3 unique_starting_index=20 config_type=initial n_minim_iter=3 stress="0.0006149094769120602 -0.002773399727029607 0.001767242975904968 -0.002773399727029607 -0.001983688664202461 -1.539780536469684e-05 0.001767242975904968 -1.539780536469684e-05 0.0035592145437560478" pbc="T T T"
Si       3.20431079       3.25092673       5.75359623
Si       5.14390069       1.66451355       1.41903032
Si       1.15936316       2.38574310       0.41759679
Si      -0.78022673       3.97215628       4.75216270
Si       4.64038914       3.17017431       4.13519955
Si       5.56956196       1.36986675       3.48588396
Si      -0.27671519       2.46649552       2.03599347
Si      -1.20588801       4.26680308       2.68530906
Si       0.62619144       4.25849532       1.30094273
Si       0.28364348       2.26010040       4.09118621
Si       3.73748251       1.37817451       4.87025029
Si       4.08003048       3.37656944       2.08000681
Si       2.62899204       3.90557098       0.61203831
Si       1.73468192       1.73109885       5.55915470
14
Lattice="7.968794256171709 -1.5417983100424186 1.9267403470767381 -1.7359858301234257 7.588739772216915 -1.295188072386034 -1.8713630383666255 -0.40480936705052945 5.537378678306876" Properties=species:S:1:pos:R:3 unique_starting_index=20 config_type=initial n_minim_iter=4 stress="-0.0008435632831311285 -0.0012430567777572056 -0.0007380578624092938 -0.0012430567777572056 0.00363775822222799 0.001220148110524287 -0.0007380578624092938 0.001220148110524287 -0.00041930878369925004" pbc="T T T"
Si       3.20225795       3.25399475       5.75182225
Si       5.14129625       1.66676921       1.41717225
Si       1.15918744       2.38813735       0.41710870
Si      -0.77985086       3.97536289       4.75175871
Si       4.63790946       3.17365667       4.13300739
Si       5.56639436       1.37200578       3.48399885
Si      -0.27646407       2.46847543       2.03592356
Si      -1.20494897       4.27012631       2.68493211
Si       0.62689078       4.26269242       1.29982746
Si       0.28309901       2.26172540       4.09016196
Si       3.73455461       1.37943968       4.86910349
Si       4.07834638       3.38040669       2.07876900
Si       2.62802653       3.90998245       0.61113202
Si       1.73341886       1.73214964       5.55779894
14
Lattice="7.967803014691947 -1.5387830829904718 1.9288818951865483 -1.7328512476667577 7.586337059123181 -1.298787520538869 -1.8706933026325328 -0.4076928312017138 5.538798359824361" Properties=species:S:1:pos:R:3 unique_starting_index=20 config_type=initial n_minim_iter=5 stress="-0.0013432018313289885 0.0021952993035927546 0.001498647093447905 0.0021952993035927546 0.0008651217362459881 -0.0017697761529055483 0.001498647093447905 -0.0017697761529055483 0.002342476894002758" pbc="T T T"
Si       3.20416672       3.25194756       5.75247767
Si       5.14197987       1.66753651       1.41703637
Si       1.16009175       2.38791359       0.41641506
Si      -0.77772141       3.97232463       4.75185637
Si       4.63957123       3.17272745       4.13294368
Si       5.56728649       1.37248302       3.48480191
Si      -0.27531277       2.46713369       2.03594905
Si      -1.20302803       4.26737812       2.68409082
Si       0.62900801       4.26172158       1.29804750
Si       0.28420807       2.25956563       4.09032732
Si       3.73525045       1.37813957       4.87084523
Si       4.08005039       3.38029552       2.07856542
Si       2.62934452       3.91030086       0.61007274
Si       1.73491394       1.72956028       5.55881999
14
Lattice="7.976849638981093 -1.5410136725139212 1.9247291516002458 -1.738607403955952 7.57516162071466 -1.2979488620907422 -1.8754215803107879 -0.4060300249246516 5.539437910309499" Properties=species:S:1:pos:R:3 unique_starting_index=20 config_type=initial n_minim_iter=6 stress="0.0023239953576172615 -0.0010318016597640443 -0.0004678460794612793 -0.0010318016597640443 -0.000493388638299205 -0.0017698449127644328 -0.0004678460794612793 -0.0017698449127644328 -0.0014155998567243714" pbc="T T T"
Si       3.20309997       3.24397479       5.75048949
Si       5.14735268       1.65997653       1.41271017
Si       1.15972068       2.38414314       0.41572871
Si      -0.78453202       3.96814140       4.75350803
Si       4.64122447       3.16334492       4.12838012
Si       5.57248570       1.36639501       3.47988654
Si      -0.27840382       2.46477301       2.03783808
Si      -1.20966504       4.26172291       2.68633166
Si       0.62692832       4.25661685       1.29581435
Si       0.27986661       2.25554324       4.08981291
Si       3.73589233       1.37150107       4.87040385
Si       4.08295404       3.37257469       2.07640529
Si       2.62946931       3.90481448       0.60890413
Si       1.73335134       1.72330345       5.55731407
14
Lattice="7.9667190179931815 -1.5286933001194163 1.9240064477275893 -1.7333565028313391 7.549139957332778 -1.2823325672351953 -1.8743030509305356 -0.3923142378887162 5.550959685372991" Properties=species:S:1:pos:R:3 unique_starting_index=20 config_type=initial n_minim_iter=7 stress="0.0013518135339483537 -0.001337653770193299 0.0004282474771201486 -0.001337653770193299 0.002648601439072648 0.0017625138359387625 0.0004282474771201486 0.0017625138359387625 -0.0013723679723951748" pbc="T T T"
Si       3.20056856       3.24803788       5.77038600
Si       5.14446221       1.65654990       1.41639641
Si       1.15849090       2.38009454       0.42224757
Si      -0.78540275       3.97158252       4.77623716
Si       4.63625559       3.16199404       4.14158589
Si       5.56984713       1.37050292       3.48437465
Si      -0.27719613       2.46613838       2.05104768
Si      -1.21078766       4.25762950       2.70825891
Si       0.62783695       4.25287562       1.30558862
Si       0.27721529       2.25886548       4.10700305
Si       3.73122251       1.37525680       4.88704495
Si       4.08184417       3.36926694       2.08563052
Si       2.62896449       3.90171545       0.62120292
Si       1.73009498       1.72641697       5.57143065
14
Lattice="7.952346619108481 -1.5238657047379955 1.916729199923767 -1.727412642557334 7.535754288717311 -1.2808195268219789 -1.8788020621719965 -0.39098155355469877 5.562787590175203" Properties=species:S:1:pos:R:3 unique_starting_index=20 config_type=initial n_minim_iter=8 stress="-0.0030186906162058295 -0.00047869155601419936 -0.006474271535781236 -0.00047869155601419936 -0.0011330473285987234 -2.519265599006602e-05 -0.006474271535781236 -2.519265599006602e-05 0.002269508573766159" pbc="T T T"
Si       3.18975855       3.24326774       5.77600217
Si       5.13684964       1.65313825       1.41178795
Si       1.15637336       2.37763929       0.42269509
Si      -0.79071772       3.96776878       4.78690932
Si       4.62397652       3.15736154       4.14177903
Si       5.56071915       1.36841702       3.48019047
Si      -0.27784461       2.46354549       2.05691823
Si      -1.21458724       4.25249001       2.71850680
Si       0.62594932       4.24977215       1.30664711
Si       0.27009715       2.25664400       4.11503654
Si       3.72018259       1.37113488       4.89205016
Si       4.07603476       3.36426304       2.08366072
Si       2.62652337       3.89726807       0.61984283
Si       1.71960855       1.72363896       5.57885444
14
Lattice="7.936306160862926 -1.5137709747873527 1.9232563354936496 -1.7199890494142573 7.515909543594509 -1.2776169792337793 -1.872014111571493 -0.38656201229569587 5.570461608912575" Properties=species:S:1:pos:R:3 unique_starting_index=20 config_type=initial n_minim_iter=9 stress="-0.001774619241319264 0.0009878233668678055 -0.0006587165671052834 0.0009878233668678055 -0.0006182963382606797 -0.001796446593217372 -0.0006587165671052834 -0.001796446593217372 -0.0039199004542809805" pbc="T T T"
Si       3.19015675       3.23937254       5.78794073
Si       5.13179921       1.64794813       1.41702535
Si       1.15414625       2.37620401       0.42816023
Si      -0.78749621       3.96762843       4.79907561
Si       4.61534566       3.15337006       4.15008979
Si       5.56081441       1.36671109       3.48166150
Si      -0.27104266       2.46220649       2.06601118
Si      -1.21651141       4.24886547       2.73443946
Si       0.62694098       4.25107415       1.30991650
Si       0.26704640       2.25730310       4.12558391
Si       3.71736202       1.36450240       4.90618446
Si       4.07725660       3.35827346       2.09051706
Si       2.62750639       3.89340887       0.62543148
Si       1.71679661       1.72216769       5.59066949
14
Lattice="7.909988549178767 -1.4842610699708054 1.9222051798263609 -1.6999939212428297 7.479938699619313 -1.2486147870277515 -1.8677689075837416 -0.3646571528684776 5.586784031484369" Properties=species:S:1:pos:R:3 unique_starting_index=20 config_type=initial n_minim_iter=10 stress="-0.0044795480001825205 0.001322010621906888 -0.0007716148220206964 0.001322010621906888 -0.001896877712265237 0.0005650514132098332 -0.0007716148220206964 0.0005650514132098332 -0.0031674881723911127" pbc="T T T"
Si       3.18968450       3.25537129       5.81662940
Si       5.12343605       1.65010046       1.42412992
Si       1.15254122       2.37564919       0.44374502
Si      -0.78121033       3.98092002       4.83624451
Si       4.60244268       3.16197446       4.17290333
Si       5.55797955       1.38574784       3.49278607
Si      -0.26021696       2.46904602       2.08747109
Si      -1.21575383       4.24527264       2.76758836
Si       0.63034138       4.25402743       1.33241712
Si       0.26304517       2.27000218       4.14889126
Si       3.71188435       1.37699305       4.92795730
Si       4.07918055       3.36101830       2.11148317
Si       2.63071099       3.89173502       0.64200622
Si       1.71151473       1.73928545       5.61836820
14
Lattice="7.894813521484713 -1.4298956122490845 1.9201623373436816 -1.661948594138942 7.435588415897806 -1.2127002099184347 -1.8686685012020572 -0.3424575695368682 5.605746123588022" Properties=species:S:1:pos:R:3 unique_starting_index=20 config_type=initial n_minim_iter=11 stress="-0.0029974429040715306 0.0013469289213417534 0.00018885989907470413 0.0013469289213417534 0.0014825679687452216 -0.001619537537642142 0.00018885989907470413 -0.001619537537642142 0.0035392377323308576" pbc="T T T"
Si       3.20137359       3.27430438       5.84772112
Si       5.13616534       1.65567742       1.43343263
Si       1.16282284       2.38893086       0.46548713
Si      -0.77196891       4.00755781       4.87977562
Si       4.60522340       3.18090342       4.20037094
Si       5.57829135       1.42821941       3.50411008
Si      -0.24102697       2.48233181       2.11283731
Si      -1.21409492       4.23501582       2.80909817
Si       0.64811588       4.27121639       1.36019051
Si       0.26112994       2.28756831       4.18434499
Si       3.71608055       1.39201885       4.95301774
Si       4.10306649       3.37566693       2.12886326
Si       2.64894866       3.89695949       0.66323821
Si       1.71524777       1.76627574       5.64997005
14
Lattice="7.907466804640309 -1.37262516750955 1.9097154020259857 -1.630262307255025 7.385888655298192 -1.1626377245629824 -1.8795444848156384 -0.31086579620185023 5.621639854008829" Properties=species:S:1:pos:R:3 unique_starting_index=20 config_type=initial n_minim_iter=12 stress="0.0036210062172743872 -0.002573711086002173 -0.0014744750403751427 -0.002573711086002173 0.002159346013438354 -0.0009446028826748607 -0.0014744750403751427 -0.0009446028826748607 0.010865171183017528" pbc="T T T"
Si       3.21929017       3.30214118       5.87847234
Si       5.16074222       1.67018110       1.44261949
Si       1.17836985       2.40025651       0.49024520
Si      -0.76308221       4.03221660       4.92609804
Si       4.62033276       3.21223439       4.22995811
Si       5.60870434       1.47283171       3.51505156
Si      -0.22267274       2.49016330       2.13875942
Si      -1.21104433       4.22956598       2.85366598
Si       0.67026631       4.27954577       1.39459179
Si       0.25988650       2.31338919       4.21795088
Si       3.72739371       1.42285192       4.97412574
Si       4.13777351       3.38900850       2.15076665
Si       2.66900622       3.90035517       0.68954338
Si       1.72865379       1.80204252       5.67917415
14
Lattice="7.921196576348366 -1.3133658935847818 1.9095390196197486 -1.597270684065166 7.343223928408043 -1.1124209348265797 -1.8815527576823128 -0.27932713624701616 5.628756498654991" Properties=species:S:1:pos:R:3 unique_starting_index=20 config_type=initial n_minim_iter=13 stress="0.007842294277230369 -0.005646932546203474 0.001620053084594602 -0.005646932546203474 0.005080937407625069 5.309753502013102e-05 0.001620053084594602 5.309753502013102e-05 0.011653914433007888" pbc="T T T"
Si       3.24510360       3.33669689       5.90709977
Si       5.18853895       1.68912829       1.46082810
Si       1.19726953       2.41383401       0.51877481
Si      -0.74616581       4.06140261       4.96504649
Si       4.64029108       3.25499954       4.26127589
Si       5.63737778       1.52453546       3.53914739
Si      -0.19791795       2.49553136       2.16459869
Si      -1.19500465       4.22599544       2.88672719
Si       0.69914773       4.28714592       1.43124640
Si       0.27177258       2.34329383       4.24424011
Si       3.74322541       1.46338498       4.99462818
Si       4.17060056       3.40723707       2.18163447
Si       2.69212262       3.90630017       0.72671255
Si       1.75025052       1.84423073       5.69916203
14
Lattice="7.932004605663101 -1.258499594332566 1.90801584169183 -1.56778098098853 7.301323081797318 -1.0608206957178228 -1.881745368262989 -0.24668821831064275 5.629107497373191" Properties=species:S:1:pos:R:3 unique_starting_index=20 config_type=initial n_minim_iter=14 stress="0.0027990799362704985 0.0008418084506475478 0.003347146852506519 0.0008418084506475478 -0.0023475589773079256 -0.0004997342742330966 0.003347146852506519 -0.0004997342742330966 0.006065963519190469" pbc="T T T"
Si       3.26255111       3.37975188       5.93975501
Si       5.21017358       1.70936795       1.47809294
Si       1.21992715       2.41638339       0.53654763
Si      -0.72769532       4.08676732       4.99820970
Si       4.66310195       3.30287857       4.29042494
Si       5.65680792       1.57448824       3.56499068
Si      -0.18062370       2.49325670       2.18587771
Si      -1.17432967       4.22164703       2.91131196
Si       0.72458009       4.28864475       1.46744998
Si       0.28569207       2.37503497       4.26761836
Si       3.75789817       1.50749052       5.00885266
Si       4.19678619       3.42110030       2.20868428
Si       2.71374701       3.90639770       0.75750716
Si       1.76873125       1.88973757       5.71879549
14
Lattice="7.904074156033976 -1.230482240912532 1.9012853829073713 -1.5455865940832942 7.2698777659414064 -1.037957595117868 -1.8799175959150114 -0.23239792301366408 5.634934254054754" Properties=species:S:1:pos:R:3 unique_starting_index=20 config_type=initial n_minim_iter=15 stress="-0.011455239803503263 0.005598546327208946 0.001567733913847902 0.005598546327208946 -0.0018216321772773019 -0.0013166762456606864 0.001567733913847902 -0.0013166762456606864 -0.0022538231814410257" pbc="T T T"
Si       3.25413781       3.39644087       5.95064472
Si       5.20412777       1.70803544       1.48594839
Si       1.22443216       2.41055673       0.54761732
Si      -0.72555780       4.09896216       5.01231365
Si       4.65084216       3.32394040       4.30551346
Si       5.64266316       1.59732787       3.56944746
Si      -0.17227219       2.48305720       2.19274858
Si      -1.16409319       4.20966973       2.92881458
Si       0.73337983       4.28255679       1.48126865
Si       0.28786879       2.39059582       4.27880209
Si       3.74519013       1.52444081       5.01699339
Si       4.19070118       3.41640179       2.21945996
Si       2.71364764       3.90686287       0.76594690
Si       1.76492233       1.90013473       5.73231514
14
Lattice="7.896457115812596 -1.1764394062831902 1.887298172754371 -1.5192933718771946 7.181414672053028 -0.9884653657946468 -1.8865645797273467 -0.1976640107257091 5.646056345365975" Properties=species:S:1:pos:R:3 unique_starting_index=20 config_type=initial n_minim_iter=16 stress="-0.006364571193140255 0.005271399682023311 -0.0024588189994590843 0.005271399682023311 0.0013550236966839953 0.0017422443799812771 -0.0024588189994590843 0.0017422443799812771 0.0004930810371538571" pbc="T T T"
Si       3.25238395       3.41386851       5.97358969
Si       5.22043167       1.69341921       1.49150509
Si       1.23821522       2.39344275       0.57129946
Si      -0.72983250       4.11389204       5.05338406
Si       4.64878460       3.34901500       4.33288776
Si       5.65098463       1.63185033       3.57963608
Si      -0.15818544       2.45829625       2.21200139
Si      -1.16038546       4.17546092       2.96525308
Si       0.74603287       4.25919598       1.50655243
Si       0.28967872       2.41341649       4.30690915
Si       3.74456629       1.54811528       5.03833673
Si       4.20092045       3.39389477       2.23798000
Si       2.72931596       3.89270846       0.78503323
Si       1.76128320       1.91460280       5.75985592
14
Lattice="7.886344507895924 -1.1757154285165634 1.8825744094806005 -1.5215732687115984 7.157940966056724 -0.9825659437597114 -1.8862613098348715 -0.19150487172122524 5.645835638581713" Properties=species:S:1:pos:R:3 unique_starting_index=20 config_type=initial n_minim_iter=17 stress="-0.00031555841160880896 0.0007824298651266429 -0.0052385274345071705 0.0007824298651266429 0.002132893496478691 0.0010112400165541353 -0.0052385274345071705 0.0010112400165541353 -0.003867671716598678" pbc="T T T"
Si       3.23612019       3.41225572       5.97338289
Si       5.21718768       1.67491644       1.49455441
Si       1.24238974       2.37846495       0.57246122
Si      -0.73867775       4.11580422       5.05128969
Si       4.63909512       3.35074298       4.33141336
Si       5.63644864       1.63235516       3.57974209
Si      -0.16058519       2.43997769       2.21443075
Si      -1.15793871       4.15836550       2.96610201
Si       0.73835867       4.24407339       1.50703825
Si       0.28936010       2.41939156       4.30645777
Si       3.74015125       1.54664727       5.03880585
Si       4.18914983       3.37132911       2.23938633
Si       2.72357634       3.88712568       0.78076893
Si       1.75493359       1.90359499       5.76507517
14
Lattice="7.87953836312901 -1.1596117992822779 1.894682911726126 -1.5110909872315927 7.149631679518599 -0.9712657114684792 -1.8756153501953468 -0.18282691056355316 5.646663685956366" Properties=species:S:1:pos:R:3 unique_starting_index=20 config_type=initial n_minim_iter=18 stress="-0.002835860469028159 0.0006261932740903854 0.0004374910000987203 0.0006261932740903854 -0.005210932315196495 -0.00039498810521371673 0.0004374910000987203 -0.00039498810521371673 -0.00036234250609608505" pbc="T T T"
Si       3.24180680       3.42727402       5.98957832
Si       5.21700783       1.67772968       1.50771652
Si       1.25102523       2.37991895       0.58050257
Si      -0.72417581       4.12946329       5.06236436
Si       4.64578106       3.36862862       4.34624363
Si       5.63381412       1.64899300       3.59703666
Si      -0.15294904       2.43856435       2.22383726
Si      -1.14098209       4.15819997       2.97304423
Si       0.74181799       4.24272340       1.51492827
Si       0.30360839       2.43026722       4.31336903
Si       3.75101404       1.56446957       5.05515262
Si       4.18922363       3.37692575       2.25671185
Si       2.72889147       3.88946681       0.78722504
Si       1.76394056       1.91772616       5.78285584
14
Lattice="7.887006166658181 -1.1914431344455112 1.8991687082176965 -1.5304414740314638 7.186251219393677 -0.9968833739556162 -1.8732778785035646 -0.20006483533222158 5.635515174668337" Properties=species:S:1:pos:R:3 unique_starting_index=20 config_type=initial n_minim_iter=19 stress="-0.00010390964718545786 -0.0008053983180784994 0.001717640879269016 -0.0008053983180784994 -0.0015328712290712584 -0.0014799686134246242 0.001717640879269016 -0.0014799686134246242 -0.005884092181936658" pbc="T T T"
Si       3.23554533       3.41216620       5.96971290
Si       5.20995574       1.67090676       1.50206111
Si       1.24774148       2.38257705       0.56808761
Si      -0.72666893       4.12383649       5.03573939
Si       4.64316495       3.35575274       4.32643591
Si       5.63237118       1.62718730       3.59208135
Si      -0.15987814       2.43899051       2.21136460
Si      -1.14908436       4.16755595       2.94571916
Si       0.72818392       4.24560509       1.49312630
Si       0.30327131       2.42411908       4.29745482
Si       3.75510289       1.54913816       5.04467421
Si       4.18001550       3.37062417       2.24034569
Si       2.72223534       3.89606322       0.77216462
Si       1.76105148       1.89868003       5.76563589
14
Lattice="7.881790565897027 -1.1754549400617418 1.8982109339898834 -1.5205286649073235 7.171960017882936 -0.9810973684677315 -1.8733124112150608 -0.18886100369651632 5.643572683839339" Properties=species:S:1:pos:R:3 unique_starting_index=20 config_type=initial n_minim_iter=20 stress="-0.00025119894620611086 -0.0014489826269605784 0.0007379879882575564 -0.0014489826269605784 0.0007893072137745397 -4.30458279927113e-05 0.0007379879882575564 -4.30458279927113e-05 0.0013287849410498302" pbc="T T T"
Si       3.23617293       3.42326481       5.98482158
Si       5.21087759       1.67403305       1.50840552
Si       1.25177656       2.38437926       0.57586467
Si      -0.72292810       4.13361102       5.05228073
Si       4.64253369       3.36607500       4.33819342
Si       5.63502946       1.64054716       3.59959332
Si      -0.15458420       2.44156907       2.22249283
Si      -1.14707997       4.16709692       2.96109293
Si       0.73267372       4.24764376       1.50395462
Si       0.30396409       2.43439855       4.31099882
Si       3.75527577       1.56000032       5.05673163
Si       4.18398539       3.37324552       2.24968743
Si       2.72555223       3.89819853       0.78232007
Si       1.76239726       1.90944554       5.77836618
14
Lattice="7.883361640098636 -1.16179911301528 1.8978177279977198 -1.51226284332876 7.159760008937836 -0.9724957374238016 -1.8744230186675903 -0.18368275975700923 5.64677867088387" Properties=species:S:1:pos:R:3 unique_starting_index=20 config_type=initial n_minim_iter=21 stress="0.0004677099275067375 0.0004159624313063798 0.00013014768412123367 0.0004159624313063798 -0.002067839109827288 -0.00015520690298106085 0.00013014768412123367 -0.00015520690298106085 0.002513116659513041" pbc="T T T"
Si       3.24009969       3.43087616       5.99083457
Si       5.21504780       1.67569785       1.51424022
Si       1.25657609       2.38340198       0.58126610
Si      -0.71837203       4.13858028       5.05786044
Si       4.64632759       3.37195444       4.34474044
Si       5.64013087       1.64927639       3.60279088
Si      -0.14965181       2.44232370       2.22736022
Si      -1.14345509       4.16500174       2.96930978
Si       0.73764614       4.24561223       1.50703532
Si       0.30946985       2.43922711       4.31748480
Si       3.75902964       1.56866591       5.06506534
Si       4.18720593       3.37505103       2.25461586
Si       2.73035971       3.89852722       0.78594765
Si       1.76631607       1.91575091       5.78615301
