24
Lattice="6.995547917043374 -1.8589577220789006 0.25404222809903393 0.6412277783310936 8.074325023312435 0.256848499521449 2.076393999002982 2.896274581496247 9.647224317070597" Properties=species:S:1:pos:R:3 unique_starting_index=94 config_type=initial n_minim_iter=1 energy=-3921.9727438255763 free_energy=-3921.9727438255763 pbc="T T T"
Si       8.57276437       5.87240409       7.97963987
Si      -0.37722533       2.96946218       3.68160192
Si       2.75736926       6.83515369       1.44959163
Si       6.44747843       9.43575638       7.83272621
Si       5.33174264       1.53470805       1.82163601
Si       5.91498961       4.51668526       9.95348474
Si       4.56051147       0.68566549       3.60458478
Si       3.72356181       0.04905134       1.73869741
Si       6.88263357       0.35014956       5.92028701
Si       7.26049808       6.32338422       6.37799518
Si       4.71474990       6.23147900       9.54031826
Si       5.55318604       1.98019468       5.55046874
Si       1.23859658       6.13823403       2.75881751
Si       3.03127584       5.93249648       7.91041889
Si       7.10741691       3.14762637       4.51443438
Si       6.34210234       5.38266508       8.05337125
Si       5.25902768       2.60079657       9.23309877
Si       1.85292481       4.90422450       1.11487432
Si       7.05192650       2.61194730       2.45787024
Si       4.43883562       4.43227695       8.45142203
Si       6.15301134       4.60662352       3.27522516
Si       1.91840416       0.87421657       0.81732228
Si       4.86477340       8.83217880       9.16197563
Si       5.24464300       2.70700043       3.58341280
24
Lattice="6.994225536142965 -1.8584542915334428 0.254431196673248 0.6415867581851565 8.073980508845251 0.2574984775987842 2.076991441725743 2.897014858924042 9.64589171051014" Properties=species:S:1:pos:R:3 unique_starting_index=94 config_type=initial n_minim_iter=2 stress="-0.0016857303627025619 -0.0003293773988231202 0.0004952496422166639 -0.0003293773988231202 -0.0018419691074970789 0.0005551961149195586 0.0004952496422166639 0.0005551961149195586 -0.0026681312201046856" pbc="T T T"
Si       8.57227038       5.87322623       7.97944114
Si      -0.37672933       2.96954493       3.68113208
Si       2.75729252       6.83497838       1.45007947
Si       6.44751844       9.43619329       7.83255931
Si       5.33100991       1.53513199       1.82190502
Si       5.91504156       4.51762008       9.95254362
Si       4.56015394       0.68632566       3.60442967
Si       3.72303956       0.04934486       1.73867598
Si       6.88189649       0.35096238       5.91982993
Si       7.26005895       6.32408361       6.37794417
Si       4.71508770       6.23230697       9.53951441
Si       5.55274736       1.98087382       5.55000332
Si       1.23886688       6.13811186       2.75883169
Si       3.03172801       5.93302613       7.90974352
Si       7.10678032       3.14834042       4.51449769
Si       6.34198551       5.38336024       8.05289389
Si       5.25890504       2.60177463       9.23211932
Si       1.85297488       4.90434048       1.11529250
Si       7.05113217       2.61248567       2.45827437
Si       4.43904174       4.43281249       8.45055711
Si       6.15241386       4.60682299       3.27549763
Si       1.91829541       0.87429736       0.81736955
Si       4.86509229       8.83267392       9.16148544
Si       5.24415583       2.70739711       3.58336488
24
Lattice="6.993313510660656 -1.8573411220694365 0.2550886168013057 0.6435531944798053 8.076877425629316 0.25828999899482774 2.078617718583933 2.899306597587275 9.648080902568461" Properties=species:S:1:pos:R:3 unique_starting_index=94 config_type=initial n_minim_iter=3 stress="-0.0002759425825519466 0.0009097221267942848 0.0013315642671595988 0.0009097221267942848 0.0021957777197716506 0.0015451234112114523 0.0013315642671595988 0.0015451234112114523 0.0006935938246790512" pbc="T T T"
Si       8.57412518       5.87797047       7.98251407
Si      -0.37569052       2.97059683       3.68192952
Si       2.75861049       6.83768943       1.45112652
Si       6.45026557       9.44130683       7.83529676
Si       5.33116425       1.53733016       1.82298744
Si       5.91692581       4.52155918       9.95533369
Si       4.56076509       0.68850625       3.60589777
Si       3.72294880       0.05021141       1.73933550
Si       6.88205453       0.35316324       5.92171031
Si       7.26166961       6.32890939       6.38033724
Si       4.71743762       6.23677651       9.54231976
Si       5.55334025       1.98347111       5.55147304
Si       1.24030441       6.14033257       2.75969096
Si       3.03382927       5.93653455       7.91206580
Si       7.10783308       3.15194282       4.51650056
Si       6.34388654       5.38728040       8.05552170
Si       5.25982565       2.60498216       9.23467705
Si       1.85421897       4.90713858       1.11639064
Si       7.05193045       2.61556943       2.45986968
Si       4.44091066       4.43551055       8.45267639
Si       6.15331000       4.60952648       3.27706782
Si       1.91884932       0.87496005       0.81769846
Si       4.86766163       8.83737015       9.16453897
Si       5.24478643       2.70975658       3.58460735
24
Lattice="6.993581838681722 -1.8570544152524073 0.2539709248025803 0.6434949305298313 8.075094569352537 0.2555080981300564 2.076312026867452 2.895543955984488 9.647057041889363" Properties=species:S:1:pos:R:3 unique_starting_index=94 config_type=initial n_minim_iter=4 stress="-0.0005766625738250187 0.0001372528354507317 6.283557331336447e-06 0.0001372528354507317 -0.00047149776820183437 -0.0011065021232039343 6.283557331336447e-06 -0.0011065021232039343 0.0010289889218360723" pbc="T T T"
Si       8.57264624       5.87410591       7.97905041
Si      -0.37668755       2.96861793       3.68114253
Si       2.75803276       6.83538780       1.44816947
Si       6.44858997       9.43643694       7.83083723
Si       5.33094751       1.53668338       1.82128039
Si       5.91483419       4.51745093       9.95285068
Si       4.56039772       0.68772554       3.60496948
Si       3.72266262       0.04940973       1.73843968
Si       6.88079224       0.35101214       5.92020298
Si       7.26026713       6.32590427       6.37671180
Si       4.71534250       6.23264677       9.53952115
Si       5.55207767       1.98135202       5.54940490
Si       1.23937368       6.13772882       2.75721164
Si       3.03198665       5.93280636       7.90983610
Si       7.10732533       3.15021504       4.51408212
Si       6.34232339       5.38336623       8.05259074
Si       5.25738979       2.60160419       9.23302603
Si       1.85409160       4.90635863       1.11468049
Si       7.05197262       2.61443411       2.45757345
Si       4.43920284       4.43136767       8.45032507
Si       6.15251428       4.60676621       3.27409964
Si       1.91911867       0.87431228       0.81690647
Si       4.86533964       8.83231404       9.16100170
Si       5.24405999       2.70787360       3.58235767
24
Lattice="6.995659374650451 -1.8576226875197537 0.2524865790370361 0.64305952503927 8.075527879959054 0.25635013480617913 2.0750381384829244 2.896755723448567 9.645137147888427" Properties=species:S:1:pos:R:3 unique_starting_index=94 config_type=initial n_minim_iter=5 stress="0.0008575698704525825 -0.00019543966497783272 -0.0006112717003485168 -0.00019543966497783272 -0.00018297823064442027 -9.782590637685158e-05 -0.0006112717003485168 -9.782590637685158e-05 -7.665713035287737e-05" pbc="T T T"
Si       8.57332787       5.87482585       7.97680711
Si      -0.37751740       2.96922089       3.68080596
Si       2.75793798       6.83562663       1.44820072
Si       6.44836062       9.43731434       7.82928691
Si       5.33208540       1.53669010       1.82014546
Si       5.91454064       4.51855068       9.95041460
Si       4.56107007       0.68814749       3.60359109
Si       3.72342751       0.04928921       1.73744508
Si       6.88163710       0.35123661       5.91788782
Si       7.26070426       6.32673122       6.37504347
Si       4.71461312       6.23388051       9.53746845
Si       5.55247993       1.98184528       5.54745255
Si       1.23876622       6.13826202       2.75712615
Si       3.03109699       5.93393903       7.90854841
Si       7.10850921       3.15065999       4.51247313
Si       6.34247301       5.38413871       8.05056104
Si       5.25690286       2.60246336       9.23061234
Si       1.85414333       4.90691000       1.11486432
Si       7.05338205       2.61431281       2.45629446
Si       4.43880734       4.43232812       8.44837966
Si       6.15316571       4.60661545       3.27289056
Si       1.91966352       0.87421590       0.81652335
Si       4.86442054       8.83352465       9.15946917
Si       5.24471757       2.70815634       3.58109159
24
Lattice="6.99425209451877 -1.8580645502543844 0.25311664243897436 0.6428844506815351 8.077114771053067 0.2558242572893029 2.0752668236421736 2.896628418821918 9.645295024150053" Properties=species:S:1:pos:R:3 unique_starting_index=94 config_type=initial n_minim_iter=6 stress="-6.066971114016969e-05 -0.001181830099766797 0.00011933990725562417 -0.001181830099766797 -0.0003315796428999602 1.573826574291104e-05 0.00011933990725562417 1.573826574291104e-05 0.0010878903896479552" pbc="T T T"
Si       8.57220074       5.87541781       7.97753829
Si      -0.37661142       2.96955631       3.68049544
Si       2.75694153       6.83664332       1.44781978
Si       6.44716628       9.43800721       7.82927238
Si       5.33154960       1.53699820       1.82019127
Si       5.91388165       4.51881343       9.95068283
Si       4.56037894       0.68889790       3.60398996
Si       3.72283538       0.04885099       1.73771759
Si       6.88032275       0.35076835       5.91854410
Si       7.25923296       6.32819416       6.37561999
Si       4.71424924       6.23425350       9.53698310
Si       5.55152004       1.98204386       5.54744511
Si       1.23849454       6.13946680       2.75666880
Si       3.03124005       5.93454767       7.90887125
Si       7.10796298       3.15164591       4.51347077
Si       6.34218377       5.38429951       8.05068089
Si       5.25564309       2.60161566       9.23087996
Si       1.85399374       4.90845671       1.11505669
Si       7.05173145       2.61388888       2.45694768
Si       4.43885550       4.43317846       8.44846046
Si       6.15137875       4.60588827       3.27264178
Si       1.92022522       0.87389328       0.81668626
Si       4.86377213       8.83445497       9.15928254
Si       5.24389116       2.70890216       3.58138385
24
Lattice="6.993702627036812 -1.8564509719053848 0.25287493751307966 0.6450054642722644 8.078176038322843 0.25483756880831654 2.075461427251641 2.896427154487389 9.643189754364638" Properties=species:S:1:pos:R:3 unique_starting_index=94 config_type=initial n_minim_iter=7 stress="0.0004138986240862127 0.00028662253858678535 -0.0002210242284624431 0.00028662253858678535 6.12295130739635e-05 -0.0005199486874137429 -0.0002210242284624431 -0.0005199486874137429 0.0001705092117686048" pbc="T T T"
Si       8.57326017       5.87749026       7.97511096
Si      -0.37581685       2.96942154       3.67952100
Si       2.75852328       6.83798323       1.44661806
Si       6.44903691       9.43972451       7.82648809
Si       5.33192464       1.53840708       1.81931900
Si       5.91444021       4.51978693       9.94809946
Si       4.56029432       0.69007959       3.60299171
Si       3.72275934       0.04958178       1.73718492
Si       6.87990642       0.35198666       5.91710307
Si       7.26037861       6.33034943       6.37355521
Si       4.71529485       6.23514252       9.53421220
Si       5.55165560       1.98317114       5.54586790
Si       1.23985854       6.14026726       2.75540908
Si       3.03242757       5.93514062       7.90679483
Si       7.10869172       3.15359994       4.51212974
Si       6.34328360       5.38558635       8.04827926
Si       5.25549723       2.60205821       9.22862942
Si       1.85528270       4.90947697       1.11429539
Si       7.05219117       2.61556634       2.45594902
Si       4.43965627       4.43410882       8.44621773
Si       6.15216257       4.60731148       3.27102254
Si       1.92067206       0.87424678       0.81638040
Si       4.86548238       8.83567654       9.15635360
Si       5.24433875       2.71028215       3.58015929
24
Lattice="6.991129159599062 -1.8557391957506209 0.25129794236701114 0.6460556427426407 8.080073853177458 0.25433870741799125 2.0730066270242276 2.897007458100182 9.64222839222216" Properties=species:S:1:pos:R:3 unique_starting_index=94 config_type=initial n_minim_iter=8 stress="-0.0004457556892377233 0.0001871086061652913 -0.0009493291073365298 0.0001871086061652913 2.2034423451315932e-05 0.00020146932796335593 -0.0009493291073365298 0.00020146932796335593 0.0008220807357760065" pbc="T T T"
Si       8.56962775       5.87998961       7.97296063
Si      -0.37504887       2.97033587       3.67920771
Si       2.75817724       6.84049490       1.44573950
Si       6.44596251       9.44167631       7.82415057
Si       5.33030268       1.53910221       1.81761254
Si       5.91077867       4.52065228       9.94602060
Si       4.55804567       0.69231753       3.60115902
Si       3.72142794       0.05015021       1.73598707
Si       6.87578747       0.35312075       5.91537346
Si       7.25706273       6.33363640       6.37227435
Si       4.71228762       6.23757178       9.53212278
Si       5.54893227       1.98440766       5.54451494
Si       1.23893937       6.14193377       2.75476573
Si       3.03082124       5.93682540       7.90606015
Si       7.10660301       3.15588253       4.51110536
Si       6.34112433       5.38696946       8.04605593
Si       5.25091672       2.60236794       9.22664901
Si       1.85549104       4.91036206       1.11359048
Si       7.05049735       2.61678519       2.45478317
Si       4.43789917       4.43586613       8.44451880
Si       6.14937314       4.60830019       3.26815967
Si       1.92105943       0.87391821       0.81620476
Si       4.86296390       8.83782763       9.15388385
Si       5.24181937       2.71158926       3.57877047
24
Lattice="6.99204486855568 -1.8560419545188607 0.2524380468124293 0.6460281844673964 8.080695002319386 0.25348142912242855 2.0745321030084627 2.896116014704941 9.641026416699379" Properties=species:S:1:pos:R:3 unique_starting_index=94 config_type=initial n_minim_iter=9 stress="0.0006332276932067468 -0.00017821782017589066 0.0001419766402746072 -0.00017821782017589066 0.0002704953364717834 -0.00035894564496476275 0.0001419766402746072 -0.00035894564496476275 0.00013443955694651764" pbc="T T T"
Si       8.57168277       5.87944141       7.97265149
Si      -0.37438642       2.97033556       3.67837331
Si       2.75851053       6.84096357       1.44521735
Si       6.44745158       9.44121833       7.82299197
Si       5.33130726       1.53883301       1.81794719
Si       5.91270658       4.51963572       9.94496300
Si       4.55905061       0.69224056       3.60112466
Si       3.72220546       0.04991412       1.73620861
Si       6.87727869       0.35240483       5.91560318
Si       7.25853401       6.33356817       6.37200556
Si       4.71402230       6.23705151       9.53082239
Si       5.55035485       1.98388788       5.54445344
Si       1.23919499       6.14217540       2.75388562
Si       3.03220369       5.93645333       7.90497881
Si       7.10817708       3.15562268       4.51141258
Si       6.34312594       5.38622323       8.04533887
Si       5.25248074       2.60128594       9.22587149
Si       1.85586645       4.91049986       1.11311999
Si       7.05185029       2.61649849       2.45536028
Si       4.43980288       4.43525375       8.44359713
Si       6.15022952       4.60803337       3.26777617
Si       1.92158276       0.87366379       0.81637478
Si       4.86455057       8.83733404       9.15233177
Si       5.24279813       2.71127647       3.57872249
24
Lattice="6.990376282213414 -1.8547655572562263 0.25147308472098534 0.6473353087324859 8.080797986250683 0.2536217432881756 2.0734000031457165 2.896745132977376 9.6410740923702" Properties=species:S:1:pos:R:3 unique_starting_index=94 config_type=initial n_minim_iter=10 stress="0.0009610190357202553 0.0003896257808932479 0.00021623787372467902 0.0003896257808932479 -0.0011217734090621606 0.0003942858384992581 0.00021623787372467902 0.0003942858384992581 0.0007597801444920822" pbc="T T T"
Si       8.57018024       5.88124711       7.97236736
Si      -0.37380210       2.97112401       3.67871576
Si       2.75869903       6.84164293       1.44540598
Si       6.44624381       9.44176164       7.82242463
Si       5.33124054       1.53965713       1.81713349
Si       5.91076513       4.52076015       9.94348838
Si       4.55781478       0.69393606       3.60048052
Si       3.72168776       0.05082723       1.73539355
Si       6.87483568       0.35397266       5.91497729
Si       7.25689363       6.33594608       6.37202617
Si       4.71337207       6.23800518       9.53031221
Si       5.54911637       1.98527256       5.54413591
Si       1.23951486       6.14285663       2.75377371
Si       3.03175148       5.93753892       7.90534677
Si       7.10691556       3.15719433       4.51128146
Si       6.34251075       5.38685574       8.04512809
Si       5.24987267       2.60235674       9.22510381
Si       1.85658931       4.91072488       1.11280589
Si       7.05132722       2.61745076       2.45518623
Si       4.43967269       4.43623240       8.44340615
Si       6.14849638       4.60902179       3.26607547
Si       1.92134939       0.87347320       0.81660053
Si       4.86343289       8.83789702       9.15202688
Si       5.24178952       2.71219067       3.57814831
24
Lattice="6.98819038771044 -1.8558274456300463 0.2505611738041669 0.6467658334513144 8.084010286232497 0.2526195885549325 2.071153813290994 2.896805376106118 9.638765855975517" Properties=species:S:1:pos:R:3 unique_starting_index=94 config_type=initial n_minim_iter=11 stress="7.997053673680071e-05 -0.0001163089975971503 -9.189556297613438e-05 -0.0001163089975971503 0.0004614006751688146 9.714421762927143e-05 -9.189556297613438e-05 9.714421762927143e-05 -5.217724794564768e-05" pbc="T T T"
Si       8.56604278       5.88245108       7.96930996
Si      -0.37417241       2.97235097       3.67792117
Si       2.75714839       6.84416292       1.44417298
Si       6.44223423       9.44404447       7.81900983
Si       5.32964682       1.53978367       1.81568312
Si       5.90710281       4.52109248       9.93989908
Si       4.55578650       0.69399117       3.59901243
Si       3.72047699       0.05064224       1.73429805
Si       6.87152299       0.35330043       5.91292216
Si       7.25302169       6.33799538       6.36948652
Si       4.71037730       6.23927211       9.52710252
Si       5.54650509       1.98543639       5.54220053
Si       1.23837535       6.14522243       2.75233231
Si       3.02939394       5.93915368       7.90309684
Si       7.10382590       3.15779212       4.50935780
Si       6.33942570       5.38753344       8.04230236
Si       5.24622226       2.60211747       9.22220174
Si       1.85578377       4.91247612       1.11172061
Si       7.04897406       2.61777464       2.45373070
Si       4.43730074       4.43689951       8.44079298
Si       6.14532240       4.61020788       3.26348193
Si       1.92054821       0.87340810       0.81630582
Si       4.85979911       8.84001836       9.14871248
Si       5.23948872       2.71265501       3.57638459
24
Lattice="6.985347965921458 -1.8548702510122679 0.2503068945371352 0.6481189010761934 8.085811229515123 0.2515299170185203 2.0703493499704937 2.8966028093010556 9.63746024763156" Properties=species:S:1:pos:R:3 unique_starting_index=94 config_type=initial n_minim_iter=12 stress="2.3270503369695392e-05 6.487412022152119e-05 0.00018235060722413132 6.487412022152119e-05 0.00010369692226507509 0.00030840972305168785 0.00018235060722413132 0.00030840972305168785 -0.0002989251719589015" pbc="T T T"
Si       8.56388078       5.88434287       7.96819652
Si      -0.37326528       2.97342741       3.67781146
Si       2.75710397       6.84571764       1.44318747
Si       6.44020803       9.44525801       7.81690164
Si       5.32858960       1.54050971       1.81436515
Si       5.90557560       4.52081891       9.93783431
Si       4.55407452       0.69510666       3.59819209
Si       3.71975913       0.05178872       1.73287857
Si       6.86842368       0.35409300       5.91211718
Si       7.25018925       6.34116309       6.36839735
Si       4.71000506       6.24024580       9.52486956
Si       5.54468909       1.98701576       5.54116614
Si       1.23898847       6.14704238       2.75086925
Si       3.02939657       5.94014266       7.90215101
Si       7.10124928       3.15976288       4.50859034
Si       6.33893100       5.38808696       8.04038800
Si       5.24306537       2.60205343       9.22016015
Si       1.85637099       4.91376850       1.11092459
Si       7.04817655       2.61921760       2.45339588
Si       4.43669135       4.43760463       8.43906969
Si       6.14241201       4.61159015       3.26085567
Si       1.91935996       0.87341383       0.81657899
Si       4.85839513       8.84123494       9.14662636
Si       5.23822782       2.71408666       3.57507872
24
Lattice="6.982870331946936 -1.8545273930213682 0.2489419931253004 0.6487803887081144 8.08779306352778 0.2510800841777169 2.0680286344416614 2.8971411212143674 9.637130901792021" Properties=species:S:1:pos:R:3 unique_starting_index=94 config_type=initial n_minim_iter=13 stress="-0.0001998547605053828 7.07826609762179e-05 7.06142859733887e-05 7.07826609762179e-05 0.00019674331701868426 0.0004684313130083356 7.06142859733887e-05 0.0004684313130083356 -0.0003575504895115002" pbc="T T T"
Si       8.56021606       5.88637366       7.96695099
Si      -0.37309264       2.97450157       3.67837164
Si       2.75693068       6.84748641       1.44222107
Si       6.43663374       9.44696865       7.81539436
Si       5.32753796       1.54120009       1.81387408
Si       5.90215081       4.52125984       9.93621440
Si       4.55224567       0.69623245       3.59678400
Si       3.71868772       0.05226552       1.73124029
Si       6.86492481       0.35482579       5.91104915
Si       7.24639679       6.34420087       6.36749741
Si       4.70817577       6.24175288       9.52372029
Si       5.54185572       1.98897124       5.54023452
Si       1.23853220       6.14922769       2.75036267
Si       3.02795515       5.94160741       7.90205963
Si       7.09788820       3.16214714       4.50734107
Si       6.33700017       5.38895618       8.03894577
Si       5.23858980       2.60233040       9.21890035
Si       1.85657654       4.91502108       1.11059373
Si       7.04659479       2.62021802       2.45219102
Si       4.43417021       4.43861979       8.43792324
Si       6.13938135       4.61284248       3.25842460
Si       1.91803350       0.87366501       0.81646414
Si       4.85529022       8.84342109       9.14556705
Si       5.23621670       2.71500789       3.57322363
24
Lattice="6.979843806142263 -1.8539172381647113 0.24905659291595497 0.6497480777639414 8.089460662839672 0.2485049707731103 2.0670335157282063 2.8950359420181893 9.635699830226146" Properties=species:S:1:pos:R:3 unique_starting_index=94 config_type=initial n_minim_iter=14 stress="-0.00021607767198031616 6.309726046486473e-05 8.067095681159378e-05 6.309726046486473e-05 0.00019079136604065771 0.00021958923699035062 8.067095681159378e-05 0.00021958923699035062 -0.000267659117560984" pbc="T T T"
Si       8.55705392       5.88636428       7.96477762
Si      -0.37175008       2.97447912       3.67834703
Si       2.75757557       6.84871085       1.43943417
Si       6.43360201       9.44620665       7.81134660
Si       5.32665958       1.54075021       1.81248693
Si       5.89986132       4.51894087       9.93314647
Si       4.55048153       0.69637112       3.59552507
Si       3.71770979       0.05153498       1.73003058
Si       6.86180223       0.35450850       5.91069297
Si       7.24299759       6.34585494       6.36577714
Si       4.70819143       6.24037596       9.52107223
Si       5.53927811       1.99045631       5.53904672
Si       1.23822744       6.15063330       2.74813760
Si       3.02755334       5.94120264       7.90036950
Si       7.09437908       3.16474812       4.50565328
Si       6.33625128       5.38691820       8.03688260
Si       5.23451973       2.60002910       9.21720740
Si       1.85775211       4.91566344       1.10936696
Si       7.04548446       2.62101649       2.45146030
Si       4.43269004       4.43702674       8.43591719
Si       6.13651204       4.61307380       3.25509558
Si       1.91666893       0.87408515       0.81594978
Si       4.85300146       8.84306535       9.14222328
Si       5.23411329       2.71540028       3.57199665
24
Lattice="6.976032928068921 -1.8526964205732144 0.24997956546804448 0.6510200526381374 8.089690916135032 0.24527940948052987 2.0667818016830886 2.8916195936659963 9.635452203515344" Properties=species:S:1:pos:R:3 unique_starting_index=94 config_type=initial n_minim_iter=15 stress="-1.280799437635622e-05 3.0100711225953484e-05 2.5512474480721816e-06 3.0100711225953484e-05 6.335237904659904e-05 -0.00016704047856437742 2.5512474480721816e-06 -0.00016704047856437742 0.00017755274683991653" pbc="T T T"
Si       8.55359241       5.88494305       7.96369829
Si      -0.36971301       2.97396153       3.67865285
Si       2.75823983       6.84851571       1.43698786
Si       6.43050524       9.44313057       7.80711735
Si       5.32566805       1.53999600       1.81125036
Si       5.89866966       4.51390154       9.93222614
Si       4.54892664       0.69637040       3.59498655
Si       3.71687319       0.05026232       1.72912941
Si       6.85826569       0.35449765       5.91208127
Si       7.23941609       6.34641432       6.36537316
Si       4.70916263       6.23738925       9.51955840
Si       5.53681520       1.99179808       5.53944877
Si       1.23918213       6.15144503       2.74548576
Si       3.02766356       5.93960281       7.89949615
Si       7.09040504       3.16807086       4.50509997
Si       6.33611687       5.38267316       8.03618351
Si       5.23052864       2.59701362       9.21688624
Si       1.86017466       4.91525309       1.10836479
Si       7.04331395       2.62067613       2.45167979
Si       4.43162428       4.43367712       8.43519385
Si       6.13272897       4.61267209       3.25185688
Si       1.91532240       0.87457840       0.81520760
Si       4.85054700       8.84000692       9.13922714
Si       5.23151929       2.71460149       3.57077514
24
Lattice="6.972727505054842 -1.8521033116602748 0.25069110359863384 0.6516714249834407 8.090432963094276 0.24399974055308818 2.0666843666172365 2.890493589579979 9.636661574877314" Properties=species:S:1:pos:R:3 unique_starting_index=94 config_type=initial n_minim_iter=16 stress="-2.9193303731586685e-05 -5.798433962797776e-05 -6.565771016891991e-06 -5.798433962797776e-05 -0.0002058271464033027 -0.0003998427508827526 -6.565771016891991e-06 -0.0003998427508827526 0.0003202395027308021" pbc="T T T"
Si       8.55018142       5.88504223       7.96456610
Si      -0.36822023       2.97465937       3.67970098
Si       2.75809919       6.84911117       1.43671387
Si       6.42722169       9.44251994       7.80610397
Si       5.32460914       1.53941055       1.81139442
Si       5.89815481       4.51177522       9.93336335
Si       4.54787835       0.69642755       3.59471671
Si       3.71658713       0.04902358       1.72914724
Si       6.85509265       0.35559895       5.91417717
Si       7.23598906       6.34801487       6.36707255
Si       4.71022498       6.23593360       9.52009488
Si       5.53485720       1.99391329       5.54026645
Si       1.23954923       6.15231691       2.74420010
Si       3.02770411       5.93992800       7.90054614
Si       7.08682236       3.17190360       4.50611092
Si       6.33568010       5.38017799       8.03773411
Si       5.22764848       2.59537298       9.21755782
Si       1.86185141       4.91515980       1.10961871
Si       7.04192194       2.62125149       2.45289989
Si       4.43025502       4.43313499       8.43610029
Si       6.12879888       4.61329775       3.25021476
Si       1.91402105       0.87480951       0.81489715
Si       4.84795246       8.83913827       9.13836458
Si       5.22902943       2.71422246       3.57061087
24
Lattice="6.969067889772168 -1.8512890164542295 0.2508318167960273 0.6523792310276089 8.090736519004864 0.243516299906881 2.066001519431307 2.8902141981723894 9.638136229200887" Properties=species:S:1:pos:R:3 unique_starting_index=94 config_type=initial n_minim_iter=17 stress="-3.526115375325242e-05 -5.749386508728635e-05 -3.235684291163279e-05 -5.749386508728635e-05 -0.0004326442210479642 -0.0005317731732046638 -3.235684291163279e-05 -0.0005317731732046638 0.000239889914422833" pbc="T T T"
Si       8.54587404       5.88554754       7.96562107
Si      -0.36667894       2.97611769       3.68120337
Si       2.75783999       6.84987343       1.43642666
Si       6.42279898       9.44256236       7.80564033
Si       5.32455125       1.53948749       1.81183123
Si       5.89712026       4.50986852       9.93503294
Si       4.54623636       0.69554387       3.59464165
Si       3.71657420       0.04768234       1.72917508
Si       6.85097917       0.35771815       5.91613219
Si       7.23141306       6.35041081       6.36920278
Si       4.71092790       6.23572341       9.52173305
Si       5.53252495       1.99708666       5.54036085
Si       1.23885057       6.15309811       2.74379360
Si       3.02713125       5.94121536       7.90201192
Si       7.08233900       3.17670172       4.50703279
Si       6.33483370       5.37788039       8.03944971
Si       5.22440814       2.59406590       9.21776606
Si       1.86484098       4.91415626       1.11115522
Si       7.03979913       2.62201488       2.45477523
Si       4.42788073       4.43292790       8.43687073
Si       6.12395360       4.61404168       3.24824906
Si       1.91283878       0.87458880       0.81460788
Si       4.84381817       8.83837711       9.13836785
Si       5.22645542       2.71479933       3.57019948
24
Lattice="6.965259810370466 -1.8505704944050694 0.2505130390272199 0.6531626136357536 8.091950896041663 0.24373335702043783 2.064951798426077 2.891167207648227 9.638977117759921" Properties=species:S:1:pos:R:3 unique_starting_index=94 config_type=initial n_minim_iter=18 stress="0.00013885011073208665 -6.107586744358622e-05 -9.845939554121449e-05 -6.107586744358622e-05 -0.00017588844203409785 -0.00038518413132608657 -9.845939554121449e-05 -0.00038518413132608657 0.000239532340911766" pbc="T T T"
Si       8.54132193       5.88714752       7.96636840
Si      -0.36538180       2.97792159       3.68257008
Si       2.75726351       6.85115695       1.43486540
Si       6.41796144       9.44483245       7.80452998
Si       5.32418388       1.53950107       1.81223656
Si       5.89540749       4.50912913       9.93660418
Si       4.54541630       0.69512260       3.59457109
Si       3.71662113       0.04638905       1.72901884
Si       6.84626440       0.36030281       5.91723172
Si       7.22592457       6.35455823       6.37052417
Si       4.71138318       6.23578170       9.52289230
Si       5.52984249       2.00104124       5.54029187
Si       1.23800350       6.15595576       2.74426071
Si       3.02580768       5.94462699       7.90284992
Si       7.07741576       3.18183751       4.50761485
Si       6.33360141       5.37728612       8.04017599
Si       5.22137648       2.59438780       9.21731370
Si       1.86803360       4.91328819       1.11391706
Si       7.03829133       2.62306589       2.45580547
Si       4.42538777       4.43458135       8.43781609
Si       6.11898540       4.61663050       3.24568939
Si       1.91245213       0.87405173       0.81431020
Si       4.83892271       8.83998816       9.13921984
Si       5.22265076       2.71613267       3.56964750
24
Lattice="6.9605177030661505 -1.849942281476907 0.24969042997086166 0.6534519880911644 8.092187718155223 0.2446633124945941 2.0629764615180557 2.8925428517604748 9.640602548836462" Properties=species:S:1:pos:R:3 unique_starting_index=94 config_type=initial n_minim_iter=19 stress="0.00020351331770317293 -4.339191217819822e-05 -0.00015428286056262807 -4.339191217819822e-05 0.00019932420054415237 -8.294292213967e-06 -0.00015428286056262807 -8.294292213967e-06 0.00013313513579089428" pbc="T T T"
Si       8.53451119       5.88826471       7.96717878
Si      -0.36355080       2.97952211       3.68432727
Si       2.75544794       6.85112776       1.43395373
Si       6.41131823       9.44644670       7.80507217
Si       5.32237053       1.53888912       1.81268216
Si       5.89307111       4.50927299       9.93779796
Si       4.54341548       0.69524620       3.59480208
Si       3.71556892       0.04455986       1.72936624
Si       6.84036700       0.36257872       5.91808225
Si       7.21914507       6.35782124       6.37231378
Si       4.70964427       6.23677813       9.52578267
Si       5.52570820       2.00464749       5.54069574
Si       1.23740686       6.15892079       2.74514578
Si       3.02349061       5.94771359       7.90444782
Si       7.07086664       3.18550553       4.50778147
Si       6.33024889       5.37677110       8.04196446
Si       5.21746007       2.59538367       9.21737710
Si       1.87039077       4.91142766       1.11775504
Si       7.03531155       2.62376931       2.45700994
Si       4.42147110       4.43605267       8.43925128
Si       6.11258564       4.61824579       3.24368706
Si       1.91151658       0.87310162       0.81439369
Si       4.83321607       8.84207406       9.14110851
Si       5.21809397       2.71780331       3.56873312
24
Lattice="6.956323815569902 -1.8495868802811848 0.24901832560923717 0.6536530073588027 8.093152729869312 0.24621988311334725 2.061459120260628 2.8948323458946312 9.64338925621709" Properties=species:S:1:pos:R:3 unique_starting_index=94 config_type=initial n_minim_iter=20 stress="0.00023524571128432127 -4.9518991453620465e-05 -5.31873891867913e-05 -4.9518991453620465e-05 0.0004592626063205118 0.0002774606152444714 -5.31873891867913e-05 0.0002774606152444714 0.00019084857181008596" pbc="T T T"
Si       8.52848037       5.89032912       7.96915617
Si      -0.36147074       2.98141031       3.68678851
Si       2.75392632       6.85173337       1.43468026
Si       6.40597362       9.44920104       7.80787713
Si       5.32075704       1.53872797       1.81366413
Si       5.89079808       4.51033027       9.94045612
Si       4.54085759       0.69628054       3.59605881
Si       3.71399736       0.04342600       1.72981273
Si       6.83563049       0.36488345       5.91946325
Si       7.21350490       6.36080804       6.37507982
Si       4.70750185       6.23879108       9.52992131
Si       5.52191827       2.00799122       5.54088780
Si       1.23671154       6.16192135       2.74655160
Si       3.02182474       5.95126392       7.90726139
Si       7.06542478       3.18850353       4.50865318
Si       6.32717984       5.37833912       8.04455698
Si       5.21463652       2.59795862       9.21921741
Si       1.87266836       4.91120737       1.12120829
Si       7.03237207       2.62550789       2.45873488
Si       4.41812427       4.43922275       8.44224334
Si       6.10771030       4.62045284       3.24310868
Si       1.91105505       0.87272955       0.81476957
Si       4.82858694       8.84525903       9.14503518
Si       5.21417568       2.71871931       3.56884097
24
Lattice="6.94778322816962 -1.8475990646429985 0.24674645790661312 0.6558964512448674 8.096633407227886 0.2492374708181229 2.058007172633869 2.9004499964315134 9.646135484727521" Properties=species:S:1:pos:R:3 unique_starting_index=94 config_type=initial n_minim_iter=21 stress="4.2692073130486066e-05 7.04129613656361e-05 7.525992886465429e-05 7.04129613656361e-05 0.0004949835956709888 0.0004703650207278685 7.525992886465429e-05 0.0004703650207278685 0.00017783142736025492" pbc="T T T"
Si       8.51777901       5.89705104       7.97045122
Si      -0.35846579       2.98506244       3.69040896
Si       2.75387221       6.85590350       1.43648289
Si       6.39743746       9.45807411       7.81023908
Si       5.31732332       1.53956916       1.81432611
Si       5.88624898       4.51580334       9.94249232
Si       4.53488440       0.70004235       3.59651933
Si       3.71046744       0.04404812       1.73038891
Si       6.82616770       0.37053517       5.92030558
Si       7.20333178       6.36885793       6.37594925
Si       4.70279534       6.24459198       9.53550063
Si       5.51429917       2.01378057       5.54056774
Si       1.23629274       6.16796212       2.74835756
Si       3.01834300       5.96059469       7.91004677
Si       7.05621818       3.19611509       4.50883526
Si       6.32071819       5.38503714       8.04690417
Si       5.20814900       2.60391751       9.22014305
Si       1.87795935       4.91338854       1.12667970
Si       7.02640295       2.63193741       2.45922764
Si       4.41273090       4.44666642       8.44620711
Si       6.09901609       4.62539103       3.24145842
Si       1.91005315       0.87323721       0.81524106
Si       4.82170129       8.85462396       9.15008936
Si       5.20741845       2.72341411       3.56634223
