24
Lattice="6.872920520800324 -1.8237744522634374 0.2472875918275091 0.6884970163084805 8.145032666653389 0.2773625363284617 2.062095213236475 2.9592127216806094 9.649932201732373" Properties=species:S:1:pos:R:3 unique_starting_index=94 config_type=initial n_minim_iter=1 energy=-3922.028141186518 free_energy=-3922.028141186518 pbc="T T T"
Si       8.42722497       5.86089655       7.95447900
Si      -0.31040245       3.04124458       3.70250602
Si       2.78226611       6.92563660       1.46852812
Si       6.35898313       9.56385329       7.82933920
Si       5.31965978       1.54909932       1.82955381
Si       5.90535130       4.56793761       9.94725335
Si       4.51612838       0.74486942       3.61950504
Si       3.68133814       0.07713217       1.76729831
Si       6.75420175       0.43308582       5.93115813
Si       7.15118070       6.47732191       6.37767373
Si       4.70264093       6.29871575       9.60799862
Si       5.44185877       2.07638322       5.52977086
Si       1.25069048       6.23085461       2.76108021
Si       3.01467206       6.07623309       7.96171345
Si       6.98074984       3.28874471       4.51128950
Si       6.30447990       5.46721311       8.05995198
Si       5.17866682       2.67893381       9.20991544
Si       1.96133392       4.95037754       1.19403828
Si       6.99312564       2.70371591       2.46491479
Si       4.39910391       4.54031199       8.46061066
Si       6.02779127       4.68415437       3.20340377
Si       1.91482270       0.90102624       0.82700340
Si       4.79254417       8.98968074       9.18529788
Si       5.15704940       2.77611951       3.54791238
24
Lattice="6.873777686895387 -1.8240780555459295 0.24744010169579883 0.6883635031939825 8.145454498266684 0.27674199938300026 2.0623019753928546 2.9586053817412776 9.649172480484077" Properties=species:S:1:pos:R:3 unique_starting_index=94 config_type=initial n_minim_iter=2 stress="0.0008519342681913465 -1.4960353932004482e-05 -1.5228058544399016e-05 -1.4960353932004482e-05 0.0006760970865027918 -0.0002517248870335592 -1.5228058544399016e-05 -0.0002517248870335592 0.00034522227027084006" pbc="T T T"
Si       8.42816929       5.86039415       7.95366610
Si      -0.31035249       3.04108574       3.70223677
Si       2.78239138       6.92578011       1.46785753
Si       6.35950380       9.56359146       7.82810707
Si       5.32038265       1.54890858       1.82916568
Si       5.90578520       4.56727619       9.94631561
Si       4.51652516       0.74450090       3.61929700
Si       3.68179205       0.07690619       1.76720796
Si       6.75495886       0.43258326       5.93071911
Si       7.15186857       6.47709747       6.37688885
Si       4.70308962       6.29820598       9.60704238
Si       5.44248665       2.07590637       5.52930306
Si       1.25064448       6.23092125       2.76046398
Si       3.01487207       6.07592201       7.96083845
Si       6.98145588       3.28848661       4.51086894
Si       6.30512899       5.46671422       8.05917889
Si       5.17922642       2.67840527       9.20925861
Si       1.96141917       4.95060185       1.19360596
Si       6.99384713       2.70346965       2.46455487
Si       4.39961901       4.53974631       8.45979562
Si       6.02836617       4.68391234       3.20286939
Si       1.91522090       0.90102843       0.82683607
Si       4.79281260       8.98933581       9.18420470
Si       5.15762029       2.77595864       3.54768183
24
Lattice="6.873518879928943 -1.8240512544139404 0.24745153082150453 0.6882733298530972 8.145086900242674 0.27671214185079324 2.0622255618353367 2.958437346227249 9.648665545878666" Properties=species:S:1:pos:R:3 unique_starting_index=94 config_type=initial n_minim_iter=3 stress="0.00016441782321544986 -0.00015495958880145042 3.7512940873528755e-05 -0.00015495958880145042 -0.00014277163386574622 -0.00010883627500773075 3.7512940873528755e-05 -0.00010883627500773075 -0.0005712938901222449" pbc="T T T"
Si       8.42784016       5.86004438       7.95327525
Si      -0.31029946       3.04092060       3.70209864
Si       2.78222105       6.92542647       1.46774154
Si       6.35919302       9.56307884       7.82765396
Si       5.32021003       1.54879275       1.82901084
Si       5.90547137       4.56700026       9.94578411
Si       4.51631324       0.74442970       3.61912582
Si       3.68165435       0.07687138       1.76711938
Si       6.75468148       0.43253645       5.93038754
Si       7.15155003       6.47677403       6.37657862
Si       4.70289296       6.29785696       9.60655687
Si       5.44227838       2.07574302       5.52901763
Si       1.25053228       6.23061070       2.76030980
Si       3.01472286       6.07561226       7.96042648
Si       6.98114355       3.28831095       4.51066755
Si       6.30486848       5.46638889       8.05878954
Si       5.17901608       2.67828272       9.20880137
Si       1.96129436       4.95039789       1.19353817
Si       6.99353653       2.70327516       2.46442079
Si       4.39946225       4.53946636       8.45934303
Si       6.02809433       4.68360115       3.20269636
Si       1.91522237       0.90099538       0.82677228
Si       4.79253910       8.98886398       9.18374575
Si       5.15741743       2.77581275       3.54756362
24
Lattice="6.873126408146706 -1.8238959157681407 0.24740666106642398 0.688411710696928 8.145089633406293 0.27685966901447034 2.062139547124151 2.9586327247177144 9.649332277236532" Properties=species:S:1:pos:R:3 unique_starting_index=94 config_type=initial n_minim_iter=4 stress="-4.701124516677772e-05 -4.3451032056578686e-05 -4.688698352949717e-05 -4.3451032056578686e-05 1.5017622977093665e-06 0.00011829998823313253 -4.688698352949717e-05 0.00011829998823313253 0.00012417628204693158" pbc="T T T"
Si       8.42752402       5.86033675       7.95386160
Si      -0.31019665       3.04094617       3.70243219
Si       2.78221256       6.92548623       1.46791365
Si       6.35902698       9.56330061       7.82825857
Si       5.31999155       1.54892837       1.82907614
Si       5.90517254       4.56728177       9.94647445
Si       4.51607195       0.74460690       3.61935416
Si       3.68146007       0.07697762       1.76720455
Si       6.75429753       0.43280807       5.93072113
Si       7.15129321       6.47705326       6.37708787
Si       4.70275563       6.29809624       9.60728581
Si       5.44202367       2.07593002       5.52939063
Si       1.25056309       6.23065531       2.76058916
Si       3.01466611       6.07578487       7.96104314
Si       6.98081449       3.28856372       4.51101041
Si       6.30463928       5.46663167       8.05939544
Si       5.17875359       2.67858176       9.20943207
Si       1.96127784       4.95047160       1.19369160
Si       6.99320981       2.70344516       2.46457430
Si       4.39931165       4.53966868       8.45992114
Si       6.02787230       4.68373050       3.20293795
Si       1.91520836       0.90106412       0.82681528
Si       4.79241055       8.98908687       9.18447902
Si       5.15720786       2.77598182       3.54785661
24
Lattice="6.872875137811351 -1.8234938136144365 0.24774224987204402 0.6889192634375391 8.145172819914176 0.27628770277034387 2.062567788262064 2.958082611783747 9.64918517100903" Properties=species:S:1:pos:R:3 unique_starting_index=94 config_type=initial n_minim_iter=5 stress="-0.0001592934905518685 0.0002717738695542824 6.156261373032777e-05 0.0002717738695542824 -9.30286355794325e-05 -0.00028925168470012697 6.156261373032777e-05 -0.00028925168470012697 7.055047748970185e-05" pbc="T T T"
Si       8.42801878       5.86031826       7.95371374
Si      -0.30981492       3.04063398       3.70226187
Si       2.78261656       6.92560567       1.46743845
Si       6.35967968       9.56314852       7.82770676
Si       5.32003181       1.54914554       1.82911260
Si       5.90561547       4.56698461       9.94634436
Si       4.51618733       0.74476159       3.61936927
Si       3.68144515       0.07707946       1.76726115
Si       6.75431438       0.43286648       5.93084473
Si       7.15174273       6.47718863       6.37691209
Si       4.70334971       6.29774421       9.60703129
Si       5.44220171       2.07585479       5.52943213
Si       1.25095232       6.23054323       2.76018988
Si       3.01524559       6.07539822       7.96074002
Si       6.98095428       3.28879713       4.51105398
Si       6.30514144       5.46645327       8.05923961
Si       5.17904449       2.67830879       9.20939968
Si       1.96152806       4.95057710       1.19340576
Si       6.99327433       2.70369015       2.46456877
Si       4.39977453       4.53934471       8.45963101
Si       6.02812969       4.68382223       3.20272226
Si       1.91537198       0.90114730       0.82678548
Si       4.79307245       8.98877762       9.18396874
Si       5.15740430       2.77596941       3.54781325
24
Lattice="6.87327473149681 -1.8237973308746187 0.24782344098285006 0.6887257112971558 8.145656621146275 0.27644174704634206 2.0627579714162434 2.9583827531547713 9.648981332493475" Properties=species:S:1:pos:R:3 unique_starting_index=94 config_type=initial n_minim_iter=6 stress="-8.381610894884332e-06 0.00011683558668550115 0.0002514959460905984 0.00011683558668550115 0.0002516439044130204 0.0001862693212557876 0.0002514959460905984 0.0001862693212557876 -0.00015112898946342118" pbc="T T T"
Si       8.42852878       5.86055859       7.95376380
Si      -0.30971238       3.04081849       3.70226663
Si       2.78255235       6.92599341       1.46747871
Si       6.35976296       9.56359287       7.82767639
Si       5.32026093       1.54910237       1.82915419
Si       5.90598669       4.56730533       9.94628235
Si       4.51658249       0.74499228       3.61920563
Si       3.68167064       0.07701791       1.76717331
Si       6.75467228       0.43290188       5.93071329
Si       7.15203520       6.47768629       6.37713249
Si       4.70358690       6.29818329       9.60703015
Si       5.44248736       2.07589335       5.52944972
Si       1.25079816       6.23087988       2.76027397
Si       3.01540571       6.07575693       7.96074378
Si       6.98118215       3.28905987       4.51123382
Si       6.30554623       5.46670027       8.05930172
Si       5.17930353       2.67855948       9.20926123
Si       1.96140450       4.95091257       1.19351320
Si       6.99353139       2.70362515       2.46465473
Si       4.40005776       4.53961901       8.45935605
Si       6.02831240       4.68381978       3.20271653
Si       1.91565398       0.90118230       0.82678161
Si       4.79308029       8.98934605       9.18392370
Si       5.15769312       2.77589034       3.54788120
24
Lattice="6.873580270215994 -1.824077847276323 0.24749564657081918 0.6883377697763255 8.145326106563806 0.276029823989847 2.0620968576680276 2.957732939863545 9.648962802412097" Properties=species:S:1:pos:R:3 unique_starting_index=94 config_type=initial n_minim_iter=7 stress="1.5223449174425137e-05 -9.973831931901074e-05 -0.00011026048897437018 -9.973831931901074e-05 -9.304716481406691e-05 -5.678265970376135e-05 -0.00011026048897437018 -5.678265970376135e-05 7.797590521374264e-05" pbc="T T T"
Si       8.42811582       5.85956347       7.95319604
Si      -0.31001183       3.04051919       3.70225508
Si       2.78219880       6.92556995       1.46697668
Si       6.35896139       9.56252361       7.82701352
Si       5.32024581       1.54869563       1.82875124
Si       5.90540029       4.56642489       9.94599624
Si       4.51655607       0.74471743       3.61890806
Si       3.68169372       0.07675935       1.76692617
Si       6.75447692       0.43233069       5.93039815
Si       7.15158472       6.47694642       6.37668378
Si       4.70285915       6.29726448       9.60673844
Si       5.44221152       2.07528744       5.52919162
Si       1.25032305       6.23043963       2.75999899
Si       3.01475914       6.07497838       7.96053650
Si       6.98090533       3.28850839       4.51085011
Si       6.30507901       5.46579667       8.05892738
Si       5.17872752       2.67781287       9.20904064
Si       1.96109351       4.95062926       1.19320119
Si       6.99344715       2.70302420       2.46417574
Si       4.39951074       4.53886675       8.45899413
Si       6.02805261       4.68309069       3.20214495
Si       1.91573281       0.90102317       0.82663280
Si       4.79216244       8.98837526       9.18342626
Si       5.15756003       2.77529775       3.54755992
24
Lattice="6.873924287884239 -1.823820800380605 0.2477328356778179 0.6888270718285397 8.145797386072317 0.27559660890455884 2.0626056393085745 2.9574953526151195 9.648270455098944" Properties=species:S:1:pos:R:3 unique_starting_index=94 config_type=initial n_minim_iter=8 stress="0.0002097792913911275 0.0002754984019431131 -0.00022130632126435358 0.0002754984019431131 -0.0001085667934372557 0.0001110888400365105 -0.00022130632126435358 0.0001110888400365105 -0.00014660945999694187" pbc="T T T"
Si       8.42932527       5.85988301       7.95259876
Si      -0.30958208       3.04049006       3.70180396
Si       2.78265104       6.92612807       1.46652507
Si       6.35974789       9.56280301       7.82620641
Si       5.32073266       1.54888209       1.82835596
Si       5.90641569       4.56665043       9.94528351
Si       4.51712642       0.74499105       3.61859801
Si       3.68202945       0.07689000       1.76669429
Si       6.75497003       0.43250060       5.93016390
Si       7.15257854       6.47771309       6.37660406
Si       4.70372868       6.29715382       9.60603248
Si       5.44273121       2.07538772       5.52887487
Si       1.25070914       6.23065649       2.75956873
Si       3.01557047       6.07487325       7.95998661
Si       6.98136243       3.28912803       4.51073641
Si       6.30623718       5.46591562       8.05847126
Si       5.17919467       2.67770189       9.20831854
Si       1.96129740       4.95103160       1.19287222
Si       6.99403235       2.70327356       2.46423288
Si       4.40039664       4.53903108       8.45811922
Si       6.02861318       4.68311712       3.20160266
Si       1.91613174       0.90111021       0.82656676
Si       4.79290801       8.98865227       9.18239309
Si       5.15833911       2.77549426       3.54749794
24
Lattice="6.873816826814779 -1.824250318304957 0.24826374369977433 0.6884262938145568 8.146115065776385 0.27522748973676153 2.063007102693156 2.957033938973071 9.648391189857303" Properties=species:S:1:pos:R:3 unique_starting_index=94 config_type=initial n_minim_iter=9 stress="-7.145711228562156e-05 -6.862264046686747e-05 0.00010432621180776487 -6.862264046686747e-05 9.824604401489853e-06 -6.187217378241113e-05 0.00010432621180776487 -6.187217378241113e-05 4.47221492833004e-05" pbc="T T T"
Si       8.42935226       5.85931173       7.95294793
Si      -0.30942509       3.04046985       3.70164618
Si       2.78226025       6.92627507       1.46636154
Si       6.35944890       9.56244789       7.82625064
Si       5.32065171       1.54858336       1.82854420
Si       5.90667711       4.56610381       9.94555273
Si       4.51724731       0.74466593       3.61884363
Si       3.68204871       0.07663479       1.76686193
Si       6.75508289       0.43192143       5.93066643
Si       7.15246160       6.47747156       6.37701994
Si       4.70388226       6.29664743       9.60619468
Si       5.44278917       2.07492666       5.52919924
Si       1.25050869       6.23072649       2.75938156
Si       3.01572175       6.07452785       7.96005551
Si       6.98116459       3.28881903       4.51114719
Si       6.30640661       5.46540970       8.05876841
Si       5.17939427       2.67708501       9.20858673
Si       1.96098463       4.95112826       1.19272991
Si       6.99382417       2.70286491       2.46465073
Si       4.40066361       4.53861856       8.45821070
Si       6.02834545       4.68272718       3.20168672
Si       1.91616481       0.90101118       0.82664602
Si       4.79279866       8.98835650       9.18232570
Si       5.15835217       2.77516512       3.54777723
24
Lattice="6.874119559159922 -1.8244662478612814 0.24810489451190237 0.688452654038917 8.147014833549411 0.27468326495021467 2.0627445288750597 2.956774651555395 9.647518379183342" Properties=species:S:1:pos:R:3 unique_starting_index=94 config_type=initial n_minim_iter=10 stress="-8.453454373121146e-05 1.2395712809921993e-05 -6.680665596803546e-05 1.2395712809921993e-05 0.00010806104195993072 7.755685356967904e-06 -6.680665596803546e-05 7.755685356967904e-06 -6.683841097678654e-05" pbc="T T T"
Si       8.42974179       5.85940943       7.95170418
Si      -0.30941991       3.04074746       3.70101523
Si       2.78201274       6.92725191       1.46583940
Si       6.35884436       9.56267362       7.82492324
Si       5.32124582       1.54877976       1.82800633
Si       5.90653611       4.56597026       9.94425478
Si       4.51756851       0.74445562       3.61818842
Si       3.68229751       0.07668760       1.76614746
Si       6.75503947       0.43179477       5.93012119
Si       7.15265292       6.47842873       6.37693633
Si       4.70373032       6.29656666       9.60534124
Si       5.44277042       2.07476365       5.52858826
Si       1.25035899       6.23134122       2.75885057
Si       3.01572639       6.07444878       7.95939346
Si       6.98083735       3.28941535       4.51072196
Si       6.30703823       5.46546150       8.05785789
Si       5.17881970       2.67697254       9.20740472
Si       1.96072561       4.95169346       1.19192990
Si       6.99413429       2.70271992       2.46442903
Si       4.40110655       4.53849627       8.45699508
Si       6.02830176       4.68260478       3.20043566
Si       1.91650540       0.90104644       0.82642976
Si       4.79214665       8.98880104       9.18081656
Si       5.15866110       2.77498680       3.54717743
24
Lattice="6.8747412329180815 -1.824382743491038 0.24849509838999248 0.6884650568765642 8.146377904914875 0.27456007397072574 2.063385108362521 2.956334112253289 9.647875867459154" Properties=species:S:1:pos:R:3 unique_starting_index=94 config_type=initial n_minim_iter=11 stress="0.00033013485112542675 3.6493702449820924e-05 0.00022672146570463362 3.6493702449820924e-05 -0.00045636718229815113 0.0001001735785585046 0.00022672146570463362 0.0001001735785585046 0.0001820519145510997" pbc="T T T"
Si       8.43103143       5.85866324       7.95228498
Si      -0.30927603       3.04050050       3.70106136
Si       2.78212118       6.92679362       1.46592406
Si       6.35944111       9.56156463       7.82528446
Si       5.32188350       1.54853849       1.82820191
Si       5.90753709       4.56528196       9.94476881
Si       4.51825462       0.74419227       3.61837019
Si       3.68279873       0.07668853       1.76619483
Si       6.75586536       0.43171257       5.93066894
Si       7.15354738       6.47803731       6.37770414
Si       4.70456179       6.29573461       9.60589736
Si       5.44351668       2.07439726       5.52901184
Si       1.25052137       6.23086003       2.75888454
Si       3.01644094       6.07364594       7.95983629
Si       6.98145031       3.28922925       4.51131343
Si       6.30821498       5.46480162       8.05839236
Si       5.17946463       2.67658878       9.20783781
Si       1.96076361       4.95133305       1.19181850
Si       6.99508663       2.70236421       2.46491750
Si       4.40211814       4.53792639       8.45731510
Si       6.02889239       4.68199600       3.20048386
Si       1.91675716       0.90095258       0.82652034
Si       4.79272278       8.98793530       9.18111883
Si       5.15921715       2.77456243       3.54752426
24
Lattice="6.874461179302676 -1.8248354388047383 0.24834490365148404 0.6881650649506469 8.147304048155366 0.2738693982101096 2.0627973779234714 2.955853958684248 9.647055950815375" Properties=species:S:1:pos:R:3 unique_starting_index=94 config_type=initial n_minim_iter=12 stress="-3.813366506141942e-05 7.587482193566506e-06 5.69180193834284e-06 7.587482193566506e-06 3.6606870124312745e-05 4.705650784747879e-06 5.69180193834284e-06 4.705650784747879e-06 -3.3243455661893186e-05" pbc="T T T"
Si       8.43049141       5.85833195       7.95109845
Si      -0.30954087       3.04065939       3.70069579
Si       2.78145182       6.92762097       1.46524235
Si       6.35804485       9.56159888       7.82381206
Si       5.32163239       1.54831117       1.82755840
Si       5.90679862       4.56468691       9.94366129
Si       4.51808119       0.74363128       3.61765562
Si       3.68271841       0.07653690       1.76564783
Si       6.75520544       0.43133353       5.93007312
Si       7.15274101       6.47855644       6.37709409
Si       4.70372966       6.29537882       9.60494418
Si       5.44299552       2.07394261       5.52834333
Si       1.25007316       6.23146941       2.75820694
Si       3.01596554       6.07337204       7.95908943
Si       6.98049602       3.28940064       4.51079477
Si       6.30785518       5.46456197       8.05740501
Si       5.17832116       2.67607217       9.20683079
Si       1.96019165       4.95187808       1.19104325
Si       6.99502284       2.70221809       2.46447477
Si       4.40182622       4.53763781       8.45618625
Si       6.02827078       4.68191554       3.19923385
Si       1.91665819       0.90096841       0.82630171
Si       4.79143754       8.98824191       9.17965079
Si       5.15861780       2.77428744       3.54697495
24
Lattice="6.8745461844974605 -1.825302721766403 0.2481032129440146 0.6876873817777555 8.14755857586051 0.27359738494763997 2.062204228490979 2.955554612891375 9.647019272372596" Properties=species:S:1:pos:R:3 unique_starting_index=94 config_type=initial n_minim_iter=13 stress="-6.887973411800107e-06 -1.4714736993607145e-05 7.262205034189705e-06 -1.4714736993607145e-05 2.904408809165578e-05 2.877684392623549e-05 7.262205034189705e-06 2.877684392623549e-05 1.7396319942397805e-06" pbc="T T T"
Si       8.43034299       5.85761751       7.95073527
Si      -0.30987963       3.04075500       3.70085498
Si       2.78074405       6.92788226       1.46492245
Si       6.35664222       9.56109058       7.82326002
Si       5.32178523       1.54794350       1.82732644
Si       5.90623768       4.56427736       9.94323089
Si       4.51806023       0.74290649       3.61711774
Si       3.68274995       0.07609698       1.76526357
Si       6.75489336       0.43118991       5.92982508
Si       7.15205142       6.47868144       6.37699362
Si       4.70304883       6.29476752       9.60505256
Si       5.44263324       2.07350100       5.52813690
Si       1.24952442       6.23176357       2.75801838
Si       3.01556258       6.07281617       7.95920498
Si       6.97973478       3.28937416       4.51063661
Si       6.30755171       5.46403568       8.05737770
Si       5.17722392       2.67550349       9.20663462
Si       1.95970268       4.95213147       1.19054910
Si       6.99495506       2.70175379       2.46450094
Si       4.40153377       4.53728666       8.45572839
Si       6.02783297       4.68140881       3.19837858
Si       1.91643435       0.90099287       0.82617408
Si       4.79008271       8.98831141       9.17928833
Si       5.15819263       2.77388898       3.54662509
24
Lattice="6.874622206705196 -1.8253887068184786 0.24815406872755114 0.6875722274498035 8.14742988437667 0.273285350680245 2.062143366935616 2.95511327166949 9.647045402358035" Properties=species:S:1:pos:R:3 unique_starting_index=94 config_type=initial n_minim_iter=14 stress="-4.230453250970304e-06 -3.998154608626634e-06 7.769372288063885e-06 -3.998154608626634e-06 9.031471003801786e-06 1.128122037753997e-05 7.769372288063885e-06 1.128122037753997e-05 -4.097566217015964e-07" pbc="T T T"
Si       8.43069577       5.85692216       7.95050975
Si      -0.30986183       3.04069119       3.70094055
Si       2.78042702       6.92779684       1.46464497
Si       6.35612355       9.56047861       7.82291671
Si       5.32202695       1.54764087       1.82719257
Si       5.90632477       4.56351483       9.94343812
Si       4.51816405       0.74235486       3.61693068
Si       3.68277625       0.07567828       1.76489761
Si       6.75501772       0.43120509       5.92994309
Si       7.15202130       6.47849587       6.37699572
Si       4.70303540       6.29409535       9.60535089
Si       5.44251415       2.07332260       5.52800347
Si       1.24948561       6.23176636       2.75777825
Si       3.01569700       6.07213971       7.95929869
Si       6.97944157       3.28936404       4.51063014
Si       6.30782891       5.46356105       8.05736520
Si       5.17684150       2.67498438       9.20663850
Si       1.95955740       4.95213551       1.19029591
Si       6.99494632       2.70149779       2.46487234
Si       4.40170030       4.53669211       8.45547046
Si       6.02775181       4.68094102       3.19784313
Si       1.91635925       0.90117987       0.82603905
Si       4.78957593       8.98810675       9.17899406
Si       5.15812159       2.77350200       3.54650580
24
Lattice="6.874696849600964 -1.825533851918956 0.24814897998836472 0.6874180677787866 8.147434372646385 0.27302444457934977 2.0620065925961693 2.9547778312689927 9.647059843330766" Properties=species:S:1:pos:R:3 unique_starting_index=94 config_type=initial n_minim_iter=15 stress="1.052331145624522e-05 -5.75928281817898e-06 -8.151290320003205e-06 -5.75928281817898e-06 2.409269631088734e-05 -3.72620813918177e-07 -8.151290320003205e-06 -3.72620813918177e-07 5.679741429817297e-06" pbc="T T T"
Si       8.43091059       5.85631954       7.94997826
Si      -0.30988624       3.04066468       3.70102301
Si       2.77998085       6.92785868       1.46436753
Si       6.35545783       9.56017367       7.82247925
Si       5.32231802       1.54714432       1.82713240
Si       5.90625259       4.56295563       9.94345879
Si       4.51833604       0.74183432       3.61659088
Si       3.68280048       0.07497934       1.76450616
Si       6.75521524       0.43127976       5.93016868
Si       7.15206309       6.47834667       6.37704361
Si       4.70298512       6.29321229       9.60567639
Si       5.44219380       2.07335729       5.52787117
Si       1.24942801       6.23193947       2.75757911
Si       3.01572982       6.07169626       7.95938074
Si       6.97907653       3.28953809       4.51073008
Si       6.30806543       5.46318843       8.05748410
Si       5.17648355       2.67464167       9.20662298
Si       1.95926022       4.95218198       1.19025870
Si       6.99500844       2.70135426       2.46509760
Si       4.40196231       4.53628854       8.45537611
Si       6.02760163       4.68053811       3.19722373
Si       1.91626939       0.90153542       0.82581174
Si       4.78875093       8.98811416       9.17863628
Si       5.15786167       2.77303843       3.54638296
24
Lattice="6.874690143763027 -1.8255365762485485 0.24839864810351986 0.6873105599500268 8.1469566631462 0.2726609013045016 2.0621810584281315 2.9541305254285724 9.647091226973377" Properties=species:S:1:pos:R:3 unique_starting_index=94 config_type=initial n_minim_iter=16 stress="1.4236652614157141e-05 4.21678242503219e-06 -2.914664957208809e-06 4.21678242503219e-06 -9.016497060526695e-06 -3.5104135180102736e-05 -2.914664957208809e-06 -3.5104135180102736e-05 8.369069102069279e-06" pbc="T T T"
Si       8.43134559       5.85521651       7.94935477
Si      -0.30984238       3.04038251       3.70114033
Si       2.77946122       6.92766955       1.46391131
Si       6.35491642       9.55940490       7.82200862
Si       5.32274703       1.54641843       1.82702708
Si       5.90685360       4.56187975       9.94360450
Si       4.51854529       0.74105383       3.61636161
Si       3.68301436       0.07412951       1.76429487
Si       6.75558788       0.43131013       5.93076060
Si       7.15238368       6.47782277       6.37720794
Si       4.70306622       6.29207947       9.60639114
Si       5.44195555       2.07321406       5.52807578
Si       1.24934158       6.23178960       2.75748348
Si       3.01607230       6.07085803       7.95946199
Si       6.97870842       3.28965312       4.51115764
Si       6.30860948       5.46238968       8.05794012
Si       5.17654868       2.67399535       9.20673337
Si       1.95910581       4.95173590       1.19003851
Si       6.99505045       2.70110210       2.46538936
Si       4.40254043       4.53551335       8.45527352
Si       6.02746322       4.67965156       3.19664535
Si       1.91613217       0.90187421       0.82562161
Si       4.78785397       8.98738042       9.17836377
Si       5.15764682       2.77249034       3.54617867
24
Lattice="6.874859185932116 -1.8257234076115616 0.24837407199984257 0.6870921522759581 8.146938250139488 0.27288468284158524 2.0621577469601116 2.954325420174467 9.647391328938177" Properties=species:S:1:pos:R:3 unique_starting_index=94 config_type=initial n_minim_iter=17 stress="2.4710541369209192e-05 7.324359939435935e-06 1.611279182620057e-06 7.324359939435935e-06 -3.445642368332075e-06 -2.6961366495086705e-05 1.611279182620057e-06 -2.6961366495086705e-05 8.819370349169505e-06" pbc="T T T"
Si       8.43177601       5.85479471       7.94910710
Si      -0.31011230       3.04060256       3.70168001
Si       2.77873640       6.92799987       1.46380119
Si       6.35417073       9.55970568       7.82237263
Si       5.32346503       1.54592779       1.82704288
Si       5.90719117       4.56164933       9.94412826
Si       4.51870759       0.74053441       3.61623624
Si       3.68346660       0.07364604       1.76411995
Si       6.75588952       0.43163737       5.93122521
Si       7.15246483       6.47812574       6.37751981
Si       4.70294720       6.29174675       9.60747701
Si       5.44179036       2.07340847       5.52808584
Si       1.24910351       6.23206258       2.75796902
Si       3.01629052       6.07099696       7.95996222
Si       6.97824367       3.29003333       4.51161778
Si       6.30912678       5.46254816       8.05864298
Si       5.17675432       2.67388221       9.20703632
Si       1.95891750       4.95171658       1.19031863
Si       6.99501688       2.70104172       2.46568778
Si       4.40284493       4.53589412       8.45548768
Si       6.02722999       4.67936300       3.19631391
Si       1.91625950       0.90215631       0.82556412
Si       4.78672505       8.98762193       9.17868080
Si       5.15752601       2.77195393       3.54616991
24
Lattice="6.8749515856569 -1.8259627667795648 0.24806163730471842 0.6867677946873911 8.146829652756084 0.2731216450177837 2.061687389208197 2.9545174398151937 9.647594253271391" Properties=species:S:1:pos:R:3 unique_starting_index=94 config_type=initial n_minim_iter=18 stress="1.6190853459483498e-05 1.0396613472544733e-05 -8.977302585777761e-06 1.0396613472544733e-05 -7.324663403265724e-06 -1.0605936614795126e-05 -8.977302585777761e-06 -1.0605936614795126e-05 8.523998296084425e-06" pbc="T T T"
Si       8.43178622       5.85414595       7.94848536
Si      -0.31050053       3.04080517       3.70216532
Si       2.77769953       6.92827167       1.46358584
Si       6.35284197       9.55982038       7.82247466
Si       5.32386357       1.54519982       1.82687074
Si       5.90703230       4.56154924       9.94431161
Si       4.51863671       0.73995886       3.61589647
Si       3.68380287       0.07311635       1.76385517
Si       6.75572921       0.43198558       5.93143915
Si       7.15197653       6.47836973       6.37742830
Si       4.70237649       6.29136099       9.60860564
Si       5.44133481       2.07337543       5.52811343
Si       1.24867697       6.23213261       2.75842635
Si       3.01606021       6.07132229       7.96028968
Si       6.97729763       3.29019361       4.51152464
Si       6.30931584       5.46278706       8.05902714
Si       5.17657444       2.67381479       9.20713548
Si       1.95854879       4.95170740       1.19084470
Si       6.99495490       2.70106310       2.46592538
Si       4.40285288       4.53595507       8.45554785
Si       6.02656905       4.67888942       3.19572426
Si       1.91652556       0.90231597       0.82549419
Si       4.78510916       8.98785030       9.17868914
Si       5.15725914       2.77148773       3.54570897
24
Lattice="6.874971800209232 -1.8265628850919071 0.24784806978418283 0.6859996795035065 8.146647832901321 0.2731794521050816 2.061099051960488 2.9543763513361445 9.647558570414429" Properties=species:S:1:pos:R:3 unique_starting_index=94 config_type=initial n_minim_iter=19 stress="-8.455077116239641e-06 -1.5844624167031282e-05 3.600238901099616e-06 -1.5844624167031282e-05 -1.5120370569915291e-05 2.3356969298207666e-06 3.600238901099616e-06 2.3356969298207666e-06 9.053418232362764e-06" pbc="T T T"
Si       8.43154043       5.85249723       7.94707461
Si      -0.31080845       3.04084627       3.70239209
Si       2.77579034       6.92845538       1.46312136
Si       6.35048052       9.55913569       7.82228903
Si       5.32438175       1.54370293       1.82667854
Si       5.90712907       4.56109612       9.94396000
Si       4.51853044       0.73898384       3.61576396
Si       3.68375083       0.07183426       1.76318468
Si       6.75524196       0.43210845       5.93187719
Si       7.15081887       6.47814101       6.37705684
Si       4.70120707       6.29047836       9.61024080
Si       5.44042823       2.07292448       5.52769694
Si       1.24756420       6.23195828       2.75886048
Si       3.01608706       6.07145773       7.96044242
Si       6.97565158       3.28982663       4.51136621
Si       6.30953804       5.46288562       8.05924500
Si       5.17631952       2.67343624       9.20718035
Si       1.95833229       4.95172668       1.19121633
Si       6.99475276       2.70068348       2.46617678
Si       4.40285422       4.53586650       8.45548600
Si       6.02543735       4.67813363       3.19450581
Si       1.91711996       0.90235968       0.82552798
Si       4.78264655       8.98780829       9.17856276
Si       5.15633053       2.77032873       3.54528595
24
Lattice="6.874876403894733 -1.8268039887553937 0.24772384624108187 0.685790123352752 8.14702485430494 0.2734379872062209 2.0609030667762895 2.954785351519433 9.647493757613939" Properties=species:S:1:pos:R:3 unique_starting_index=94 config_type=initial n_minim_iter=20 stress="-3.0674378187747406e-05 -1.1834519655456509e-05 6.207580509104005e-06 -1.1834519655456509e-05 1.41864542448643e-05 3.1301643480475234e-05 6.207580509104005e-06 3.1301643480475234e-05 1.0051164272639005e-05" pbc="T T T"
Si       8.43155661       5.85229508       7.94613928
Si      -0.31071343       3.04101572       3.70252960
Si       2.77476001       6.92895903       1.46320853
Si       6.34933139       9.55953928       7.82237837
Si       5.32471686       1.54310863       1.82687479
Si       5.90746281       4.56143214       9.94402211
Si       4.51831550       0.73849782       3.61550973
Si       3.68379533       0.07148298       1.76276290
Si       6.75484630       0.43259545       5.93208881
Si       7.15032379       6.47873936       6.37697456
Si       4.70071937       6.29052721       9.61129115
Si       5.43989250       2.07298648       5.52749330
Si       1.24707597       6.23228657       2.75923415
Si       3.01661255       6.07217526       7.96064648
Si       6.97477578       3.29018792       4.51155638
Si       6.30973309       5.46376567       8.05939707
Si       5.17621104       2.67385548       9.20715912
Si       1.95841484       4.95210273       1.19171880
Si       6.99456579       2.70070222       2.46613587
Si       4.40305169       4.53667019       8.45562147
Si       6.02476761       4.67803512       3.19388638
Si       1.91759125       0.90267276       0.82555993
Si       4.78167029       8.98886498       9.17861082
Si       5.15585820       2.77040165       3.54481545
24
Lattice="6.875079647657473 -1.8268243961132649 0.24782438767659087 0.6858363436877593 8.147203925913859 0.2734805210498068 2.0611350193275 2.9549005052426396 9.647270371082168" Properties=species:S:1:pos:R:3 unique_starting_index=94 config_type=initial n_minim_iter=21 stress="-2.1192951412354458e-05 -2.3633813279541375e-06 -1.7650970893935181e-06 -2.3633813279541375e-06 -1.5757169027966937e-06 3.205243346027548e-05 -1.7650970893935181e-06 3.205243346027548e-05 3.1083815667663065e-06" pbc="T T T"
Si       8.43234693       5.85201970       7.94516796
Si      -0.31087317       3.04101364       3.70245835
Si       2.77444784       6.92942599       1.46338286
Si       6.34910429       9.55963642       7.82232736
Si       5.32535669       1.54264664       1.82695860
Si       5.90836824       4.56161735       9.94398666
Si       4.51858475       0.73820216       3.61539878
Si       3.68416306       0.07146828       1.76261875
Si       6.75488650       0.43278810       5.93225746
Si       7.15058696       6.47927926       6.37669016
Si       4.70103080       6.29035174       9.61212261
Si       5.43980115       2.07293804       5.52701245
Si       1.24689985       6.23237338       2.75938381
Si       3.01758722       6.07276863       7.96057735
Si       6.97460776       3.29050417       4.51174449
Si       6.31005930       5.46428467       8.05956739
Si       5.17643700       2.67408330       9.20694525
Si       1.95876295       4.95219427       1.19213289
Si       6.99475012       2.70061882       2.46607065
Si       4.40393601       4.53679636       8.45567314
Si       6.02462150       4.67782951       3.19340267
Si       1.91803511       0.90313047       0.82557022
Si       4.78176622       8.98967578       9.17845560
Si       5.15587702       2.77033390       3.54454591
