16
Lattice="5.439272302881074 0.3824434114516175 0.39760240509586886 2.208557870652313 6.679825707760969 -0.3530181271589174 1.1221366211997847 0.3095188447355484 10.005628580230324" Properties=species:S:1:pos:R:3 unique_starting_index=92 config_type=initial n_minim_iter=1 energy=-2615.3879516696943 free_energy=-2615.3879516696943 pbc="T T T"
Si       3.33854992       7.29551219       4.27937652
Si       0.64377130       0.39863443       0.46610649
Si       3.38549573       5.42127122       5.25447178
Si       3.29229386       3.56355885       4.23118008
Si       7.57792394       4.56540868       8.72536809
Si       3.83490278       3.03563948       7.79394709
Si       4.97937241       2.24680568       4.38600441
Si       3.33378523       5.44361747       3.12900608
Si       3.78025226       5.10280030       7.31231359
Si       2.57151466       2.35959339       9.38400565
Si       4.58462765       3.70634007       5.90585020
Si       3.50781791       5.45340571       9.36763500
Si       6.15953698       1.06520999       2.97190031
Si       2.49833492       3.76136281       6.25696288
Si       7.50021254       5.96342360       1.80500670
Si       2.20597636       1.56248062       1.31854623
16
Lattice="5.453064223249989 0.3769417484196271 0.3975552668015623 2.2077676807531024 6.67729177632111 -0.3555485740878632 1.1250090967758264 0.30447629267525267 10.004638184417976" Properties=species:S:1:pos:R:3 unique_starting_index=92 config_type=initial n_minim_iter=2 stress="0.008217078136246937 -0.0006918622066989494 0.00010486497673404201 -0.0006918622066989494 0.003986926399534691 -0.0004944046918158066 0.00010486497673404201 -0.0004944046918158066 0.004579992997909939" pbc="T T T"
Si       3.34050851       7.28975647       4.27630543
Si       0.64480935       0.39818785       0.46581591
Si       3.38914693       5.41481728       5.25214718
Si       3.29717996       3.55896609       4.22967525
Si       7.59361355       4.55405337       8.72320006
Si       3.84237407       3.02840756       7.79240305
Si       4.98979862       2.24026613       4.38434709
Si       3.33713095       5.43825729       3.12655474
Si       3.78516104       5.09620817       7.30984474
Si       2.57607096       2.35286462       9.38250544
Si       4.59339175       3.69951711       5.90351207
Si       3.51228065       5.44577000       9.36441076
Si       6.17441051       1.05786897       2.97057302
Si       2.50126932       3.75649767       6.25533490
Si       7.51411577       5.95504354       1.80306708
Si       2.21010232       1.55975684       1.31829465
16
Lattice="5.453223616272044 0.3738285441409952 0.39708615037036943 2.2045626946962824 6.670600333763416 -0.35626822931025137 1.1248848663315654 0.30207464976337983 9.994868817726058" Properties=species:S:1:pos:R:3 unique_starting_index=92 config_type=initial n_minim_iter=3 stress="0.0032033070180422533 -0.00410228320579423 -0.000479121049454215 -0.00410228320579423 -0.005915716883669634 -0.0015193976413932705 -0.000479121049454215 -0.0015193976413932705 -0.008173317449708391" pbc="T T T"
Si       3.33719816       7.28109725       4.27101059
Si       0.64432539       0.39802804       0.46515520
Si       3.38665824       5.40691457       5.24648365
Si       3.29536844       3.55418862       4.22529567
Si       7.59240653       4.54459612       8.71415590
Si       3.84110411       3.02267731       7.78470879
Si       4.98850597       2.23536680       4.37910214
Si       3.33445650       5.43092426       3.12243348
Si       3.78261694       5.08921218       7.30203777
Si       2.57495653       2.34766109       9.37325596
Si       4.59180500       3.69353524       5.89654724
Si       3.51031259       5.43774288       9.35397037
Si       6.17403897       1.05336946       2.96647760
Si       2.49976130       3.75148853       6.24912148
Si       7.51184150       5.94608969       1.80084501
Si       2.20920030       1.55718099       1.31732110
16
Lattice="5.44995899315895 0.3753316718383057 0.39943805080908856 2.2045782113644354 6.674159183225758 -0.3548728641017724 1.1273759179274183 0.3042974464966589 10.009794616600102" Properties=species:S:1:pos:R:3 unique_starting_index=92 config_type=initial n_minim_iter=4 stress="-0.0006121295874380054 -0.004178857125176294 0.001581187057612107 -0.004178857125176294 0.0012701387656445702 -0.0012927769862540602 0.001581187057612107 -0.0012927769862540602 0.0011201208183009488" pbc="T T T"
Si       3.33854938       7.28553345       4.27962426
Si       0.64198088       0.40196435       0.46484628
Si       3.38773754       5.40735184       5.25819981
Si       3.29400575       3.55973375       4.23426866
Si       7.59506756       4.54711381       8.73133952
Si       3.84181200       3.02639677       7.80017325
Si       4.98465325       2.23912724       4.38368138
Si       3.33374646       5.43130193       3.12762826
Si       3.78276428       5.09631379       7.31562063
Si       2.57647835       2.34855083       9.38938807
Si       4.59144264       3.69983555       5.90381273
Si       3.51593174       5.44149064       9.36682387
Si       6.16972876       1.05581716       2.96747003
Si       2.50255301       3.75693477       6.26223266
Si       7.51014019       5.95135723       1.80986408
Si       2.20749239       1.55924074       1.32367929
16
Lattice="5.455355555464602 0.3838973452998023 0.39592035021465 2.2174625656097877 6.672871725347651 -0.35288971055829577 1.1223944133457082 0.3107712455689277 10.005091450978396" Properties=species:S:1:pos:R:3 unique_starting_index=92 config_type=initial n_minim_iter=5 stress="0.004329128041481947 0.0010130668744680836 -0.0014079114983346918 0.0010130668744680836 -0.001437299721070086 0.0010494697846816956 -0.0014079114983346918 0.0010494697846816956 -0.001474684110913919" pbc="T T T"
Si       3.35016681       7.28742620       4.27904745
Si       0.64148075       0.40380697       0.46371939
Si       3.39639822       5.41107656       5.25699090
Si       3.29907016       3.56506240       4.23223281
Si       7.60487752       4.55904626       8.72601023
Si       3.84574336       3.03442813       7.79649738
Si       4.98916508       2.24766708       4.37801035
Si       3.34312943       5.43296804       3.12654613
Si       3.78946040       5.10326410       7.31299563
Si       2.57657198       2.35461359       9.38556701
Si       4.59773868       3.70853399       5.89919939
Si       3.52373797       5.44772858       9.36244467
Si       6.17397801       1.06615560       2.96112482
Si       2.50728941       3.76187619       6.26129378
Si       7.52588499       5.96016622       1.80804197
Si       2.21102754       1.56291073       1.32362945
16
Lattice="5.449733913539289 0.38853552536165153 0.3997538751096598 2.2214768676161407 6.672822319912502 -0.364466043499991 1.1300037075062972 0.29151554041298633 10.00373173764614" Properties=species:S:1:pos:R:3 unique_starting_index=92 config_type=initial n_minim_iter=6 stress="0.002236235219528816 0.0023355910405340238 0.0019473735600860562 0.0023355910405340238 -0.0024346557903849593 -0.005256215683340017 0.0019473735600860562 -0.005256215683340017 9.872223185828875e-05" pbc="T T T"
Si       3.35476940       7.27649229       4.26344633
Si       0.63278900       0.40397826       0.45914288
Si       3.40462068       5.40366627       5.24893984
Si       3.29503202       3.55760000       4.22503186
Si       7.61363078       4.54451528       8.72842739
Si       3.85781661       3.02235152       7.79296719
Si       4.98647314       2.24223963       4.36783364
Si       3.34691103       5.42153118       3.11880791
Si       3.79549408       5.09312856       7.30752775
Si       2.58635353       2.33241453       9.38366234
Si       4.60160070       3.70439883       5.89398463
Si       3.54429669       5.43095312       9.35024874
Si       6.16317236       1.06591359       2.95894055
Si       2.51662641       3.75108270       6.26180668
Si       7.52664346       5.96216892       1.80240477
Si       2.20956330       1.56443812       1.32700689
16
Lattice="5.444526272873892 0.3846348005794585 0.39643104779666544 2.213865826047158 6.675827784137147 -0.35474631248582256 1.121834736232306 0.3073794434060669 9.998873130102092" Properties=species:S:1:pos:R:3 unique_starting_index=92 config_type=initial n_minim_iter=7 stress="-0.002787403819835176 -0.0012999608503221835 0.0015480029492319475 -0.0012999608503221835 -0.0007979294045764444 0.0026291552198872384 0.0015480029492319475 0.0026291552198872384 -0.002781163771728663" pbc="T T T"
Si       3.34069296       7.28520391       4.26930643
Si       0.62706443       0.40562585       0.45716354
Si       3.39420898       5.41548755       5.25385461
Si       3.28226531       3.56374431       4.22638195
Si       7.59998073       4.55498182       8.73135566
Si       3.85064817       3.03519033       7.79220248
Si       4.97539664       2.24688398       4.36130233
Si       3.33672549       5.42536720       3.12460820
Si       3.78201405       5.10792838       7.31190496
Si       2.57737127       2.34512798       9.38249804
Si       4.59047585       3.71527359       5.89296346
Si       3.53612031       5.44779188       9.35112123
Si       6.15119291       1.06613638       2.95301897
Si       2.50813376       3.76291832       6.26641269
Si       7.51457165       5.96344582       1.80580763
Si       2.20362008       1.56703736       1.32968652
16
Lattice="5.438566686090582 0.3836852058954554 0.3858334893040547 2.211590670652705 6.677818808233149 -0.3651847638110378 1.101560379813786 0.298256889916871 10.000759395459843" Properties=species:S:1:pos:R:3 unique_starting_index=92 config_type=initial n_minim_iter=8 stress="-0.0068956049475395395 -0.0009753719115820518 -0.006780466805653748 -0.0009753719115820518 0.0011466152830053174 -0.0021999592010428655 -0.006780466805653748 -0.0021999592010428655 -0.00016106925641697957" pbc="T T T"
Si       3.32572234       7.28170727       4.25514455
Si       0.62079414       0.40733076       0.45407390
Si       3.38096428       5.41251371       5.24539450
Si       3.26725710       3.55926757       4.22066556
Si       7.57880413       4.54646897       8.72263716
Si       3.83667699       3.02993279       7.78656769
Si       4.95932232       2.24425608       4.34733451
Si       3.32660678       5.42179116       3.11515641
Si       3.76356099       5.10393287       7.30529456
Si       2.55980179       2.33478408       9.37949963
Si       4.57457309       3.71161033       5.87978104
Si       3.52144450       5.43972288       9.34231707
Si       6.13530284       1.06271704       2.94051592
Si       2.49408349       3.75858568       6.26291705
Si       7.50369788       5.96173174       1.78507278
Si       2.19594729       1.56663646       1.32652212
16
Lattice="5.438746305388095 0.3914299986235909 0.3986933981467829 2.220414659807183 6.670198514558548 -0.35887435040964577 1.1251349872770755 0.3012938076624102 10.005487811365107" Properties=species:S:1:pos:R:3 unique_starting_index=92 config_type=initial n_minim_iter=9 stress="-0.007468809075972501 0.0019032785078407115 0.0006555515899035119 0.0019032785078407115 -0.006284968202905597 0.0015050689301371264 0.0006555515899035119 0.0015050689301371264 0.004971198171705605" pbc="T T T"
Si       3.33640687       7.27203743       4.25486241
Si       0.60768036       0.41570210       0.45124520
Si       3.40239130       5.40992652       5.25777453
Si       3.27064099       3.55525181       4.23654190
Si       7.61534202       4.54860852       8.76165305
Si       3.87414193       3.03823705       7.80183082
Si       4.96282894       2.25417764       4.34815326
Si       3.34076318       5.41400822       3.12655064
Si       3.78762630       5.10645231       7.32301021
Si       2.59609114       2.33060541       9.38569658
Si       4.59449043       3.71630695       5.88203084
Si       3.57477841       5.43503236       9.35120070
Si       6.12981759       1.07061254       2.95329230
Si       2.51572528       3.75953088       6.27588335
Si       7.51578795       5.95981343       1.79625490
Si       2.19049342       1.56852895       1.33863818
16
Lattice="5.439886380186518 0.39549161313674386 0.40019182298960804 2.2246492355973264 6.686755070640349 -0.3594908696229821 1.129906187064271 0.29925544677927757 9.986264716335178" Properties=species:S:1:pos:R:3 unique_starting_index=92 config_type=initial n_minim_iter=10 stress="-0.006189182918294643 0.004090151867600363 0.0009599848717503903 0.004090151867600363 0.006560824262555592 -0.0008145038113230506 0.0009599848717503903 -0.0008145038113230506 -0.0022683994024160336" pbc="T T T"
Si       3.33959660       7.28838696       4.24210742
Si       0.60369396       0.41995493       0.44975748
Si       3.40884627       5.42204209       5.24811771
Si       3.27095846       3.56306301       4.23052545
Si       7.62693810       4.55972033       8.75083852
Si       3.88479223       3.04725767       7.78824658
Si       4.96438956       2.26223675       4.33770089
Si       3.34528434       5.42618445       3.11999955
Si       3.79463005       5.11872884       7.30957860
Si       2.60640794       2.33210970       9.36665138
Si       4.60051767       3.72629152       5.86907900
Si       3.59067940       5.44498084       9.33218125
Si       6.12848622       1.07517029       2.94939995
Si       2.52178055       3.76821103       6.26606529
Si       7.52157805       5.97553053       1.79165275
Si       2.18883537       1.57303328       1.33794314
16
Lattice="5.441509572142761 0.3928963010298562 0.39495468890546137 2.222698910481142 6.6828583946554625 -0.35899768460566844 1.118977005833274 0.3039335771312109 10.00204681225069" Properties=species:S:1:pos:R:3 unique_starting_index=92 config_type=initial n_minim_iter=11 stress="0.0009954799055305595 0.003496616885435576 -0.0010079452018957565 0.003496616885435576 0.006673796376889351 -0.0009283173028096631 -0.0010079452018957565 -0.0009283173028096631 0.00890457757086475" pbc="T T T"
Si       3.31284127       7.28148196       4.23561500
Si       0.58195238       0.43515451       0.44678090
Si       3.40172188       5.41906700       5.25923787
Si       3.24234906       3.56255690       4.24446414
Si       7.63892497       4.55688516       8.77647290
Si       3.89856354       3.06419112       7.80242326
Si       4.95050128       2.26723792       4.32755680
Si       3.33505758       5.42111539       3.12049108
Si       3.78673162       5.11979857       7.32068622
Si       2.61940524       2.32319050       9.37401825
Si       4.59713955       3.72957496       5.87167334
Si       3.61842882       5.43952671       9.34706996
Si       6.10658368       1.06650082       2.94849195
Si       2.51781438       3.77344550       6.29232521
Si       7.52244635       5.96108320       1.77970141
Si       2.17059340       1.57137682       1.34370974
16
Lattice="5.438736681783418 0.3893358418331701 0.39453190927487475 2.2164802001656376 6.686726173324641 -0.3524887564665444 1.1163878848910875 0.31391591649583167 10.006627989060739" Properties=species:S:1:pos:R:3 unique_starting_index=92 config_type=initial n_minim_iter=12 stress="0.00456810630083654 0.0022951390415051048 0.0005801065748860911 0.0022951390415051048 0.009829980895145075 0.0010295852624079085 0.0005801065748860911 0.0010295852624079085 0.009296145705904993" pbc="T T T"
Si       3.28485978       7.28034776       4.23753651
Si       0.55915738       0.44560747       0.44561728
Si       3.39310329       5.43026830       5.26342222
Si       3.21778771       3.56988009       4.25997087
Si       7.64937945       4.56438529       8.79644063
Si       3.91530292       3.08299568       7.81420758
Si       4.93314478       2.27906948       4.32276088
Si       3.32178399       5.42441246       3.12328978
Si       3.78575134       5.13832236       7.32437278
Si       2.64006895       2.32027106       9.36969892
Si       4.59051985       3.73688193       5.87353933
Si       3.65052268       5.44889111       9.35994334
Si       6.08429498       1.05788438       2.94796261
Si       2.51549743       3.78320470       6.31368916
Si       7.51691279       5.95176191       1.77545514
Si       2.15141835       1.56994337       1.35249840
16
Lattice="5.435349891934765 0.37783382018857403 0.38911321752713496 2.200781552477864 6.672612216344324 -0.3313910858433052 1.1016203433462617 0.3478748004095214 10.021113258345027" Properties=species:S:1:pos:R:3 unique_starting_index=92 config_type=initial n_minim_iter=13 stress="0.008793611427894523 0.0007188780697511799 0.0012625544841169583 0.0007188780697511799 0.023848661021065067 0.00207583243043697 0.0012625544841169583 0.00207583243043697 0.019186957010066674" pbc="T T T"
Si       3.21239692       7.27899721       4.25423094
Si       0.51292389       0.45971998       0.44050841
Si       3.36481163       5.42862686       5.28388185
Si       3.16648330       3.58174278       4.29523996
Si       7.66564013       4.58324663       8.83939321
Si       3.94874168       3.11839227       7.84240022
Si       4.89693596       2.29682045       4.32083246
Si       3.28777610       5.41340796       3.13998981
Si       3.78357245       5.17944219       7.33406581
Si       2.67272614       2.31042147       9.36726017
Si       4.56513183       3.74593957       5.88735753
Si       3.70359424       5.46822662       9.39530402
Si       6.03420109       1.03851653       2.94847183
Si       2.50282855       3.79708973       6.35631377
Si       7.50173622       5.90899820       1.76750175
Si       2.11417575       1.56310517       1.36898773
16
Lattice="5.441042299293818 0.3695710322440778 0.38359265405197934 2.1943163730689292 6.655293710382544 -0.3285839938716572 1.0917853156106314 0.3534375894592187 10.021016187590984" Properties=species:S:1:pos:R:3 unique_starting_index=92 config_type=initial n_minim_iter=14 stress="0.009204283186708092 0.0016179071488037042 0.0022089193283296085 0.0016179071488037042 0.01672120841444843 0.0011536556796644835 0.0022089193283296085 0.0011536556796644835 0.011773991717682251" pbc="T T T"
Si       3.17486178       7.26425210       4.25741072
Si       0.49203361       0.46659983       0.43822025
Si       3.34925056       5.42004472       5.28077076
Si       3.14559807       3.57065468       4.30159119
Si       7.69126986       4.57538824       8.84166549
Si       3.96676219       3.12934974       7.84824190
Si       4.87835293       2.29914743       4.31640516
Si       3.27053578       5.39595390       3.14261414
Si       3.78548412       5.18219206       7.32837900
Si       2.68882661       2.28682087       9.35542312
Si       4.55820466       3.73441632       5.88429617
Si       3.73030823       5.45786058       9.39473911
Si       6.01388251       1.02424048       2.94027469
Si       2.49322311       3.78825702       6.37157442
Si       7.50019581       5.87119247       1.75331683
Si       2.09631513       1.55374574       1.37355648
16
Lattice="5.462965319237862 0.3459385009726287 0.3687208765364376 2.1780854778781045 6.618564224799431 -0.33326635036776076 1.0685199652888915 0.3492405539874455 10.012555805635895" Properties=species:S:1:pos:R:3 unique_starting_index=92 config_type=initial n_minim_iter=15 stress="0.007223654675714198 -0.0017285477819445317 -0.0012566906139405705 -0.0017285477819445317 -0.005924249432812249 -0.0007959709912848033 -0.0012566906139405705 -0.0007959709912848033 -0.0029375680219396426" pbc="T T T"
Si       3.11934793       7.23318162       4.26056139
Si       0.47741194       0.46284501       0.43684060
Si       3.31783255       5.38839971       5.26750489
Si       3.12682755       3.53113364       4.29508749
Si       7.71519246       4.52489421       8.81855841
Si       3.97999174       3.12030270       7.84886115
Si       4.86195473       2.27309470       4.30309896
Si       3.23783889       5.36542517       3.13748591
Si       3.78029728       5.15508097       7.30130241
Si       2.68896568       2.25022314       9.32548246
Si       4.53520802       3.70480672       5.87287995
Si       3.73608904       5.42799655       9.37205463
Si       6.00457148       0.99616945       2.91449232
Si       2.48313393       3.76090647       6.36784446
Si       7.50401812       5.79793021       1.72670705
Si       2.08046876       1.53175988       1.37357607
16
Lattice="5.4604026882924135 0.3300749090387228 0.36923097375222547 2.158586286674123 6.60534941200012 -0.33500299175442155 1.0702107445224398 0.3410307368397889 9.990577373251654" Properties=species:S:1:pos:R:3 unique_starting_index=92 config_type=initial n_minim_iter=16 stress="0.0008951141610290808 -0.003570471087867321 -0.0028808953173074165 -0.003570471087867321 -0.006914209062453471 -0.004728281354502834 -0.0028808953173074165 -0.004728281354502834 -0.011524127103257318" pbc="T T T"
Si       3.08094243       7.21879835       4.26272389
Si       0.47452367       0.46357374       0.42565602
Si       3.29554897       5.37359278       5.24789251
Si       3.11391474       3.51183684       4.28252801
Si       7.72470169       4.48539419       8.79843697
Si       3.99344886       3.10943820       7.85268626
Si       4.84609926       2.24860768       4.29387743
Si       3.20679219       5.35851481       3.13689760
Si       3.77951919       5.14591928       7.27649909
Si       2.68965575       2.22254057       9.30388148
Si       4.52612427       3.69017015       5.85840329
Si       3.74057444       5.41219218       9.33952190
Si       5.97866512       0.98044570       2.91368089
Si       2.47540694       3.74147195       6.35190760
Si       7.48704893       5.75842389       1.71718762
Si       2.07037049       1.52131890       1.36713385
16
Lattice="5.447878917981827 0.3281500866362622 0.36879530253673987 2.149418456562592 6.622991877105714 -0.32807162009536 1.0661206915389005 0.3519197840506626 9.988248798492569" Properties=species:S:1:pos:R:3 unique_starting_index=92 config_type=initial n_minim_iter=17 stress="-0.0018453246062634565 0.0008582905147542365 -0.003218358630349873 0.0008582905147542365 -0.00038328908788391204 -7.106209658173845e-05 -0.003218358630349873 -7.106209658173845e-05 -0.0002812958527805384" pbc="T T T"
Si       3.05072958       7.24096856       4.27478685
Si       0.45621503       0.46533737       0.42259771
Si       3.28008412       5.39086497       5.25047451
Si       3.09855387       3.52752930       4.28617858
Si       7.72495929       4.49411585       8.81150786
Si       4.01110687       3.14546256       7.86450208
Si       4.81764542       2.25594628       4.28786404
Si       3.17961688       5.38044093       3.14612919
Si       3.77517252       5.16614572       7.27646024
Si       2.68994384       2.22629099       9.30217417
Si       4.51568193       3.70846908       5.85649185
Si       3.75313656       5.43634506       9.33470674
Si       5.94194172       0.98489652       2.90866489
Si       2.46752799       3.75343536       6.35687058
Si       7.47265123       5.76654676       1.70914492
Si       2.05621893       1.52480087       1.37621214
16
Lattice="5.442461231216518 0.32313221898250344 0.37301469537493975 2.1392680331578733 6.639109265609033 -0.32285623517088435 1.0721027514635566 0.35681872046804436 9.98868528839257" Properties=species:S:1:pos:R:3 unique_starting_index=92 config_type=initial n_minim_iter=18 stress="-0.006025317150894668 0.002919003677906904 -5.974706676301918e-05 0.002919003677906904 -0.006755348248211714 0.0006532458455254873 -5.974706676301918e-05 0.0006532458455254873 0.000556439055969322" pbc="T T T"
Si       3.03485146       7.26269656       4.29025501
Si       0.45630368       0.45476219       0.42082182
Si       3.27209353       5.40462618       5.26097314
Si       3.10611738       3.53952921       4.27931033
Si       7.72769683       4.48619367       8.81655386
Si       4.02436357       3.16345002       7.88080159
Si       4.80709849       2.25292627       4.29903303
Si       3.15497734       5.40506210       3.15255603
Si       3.76921846       5.17544067       7.27412731
Si       2.68645947       2.24005007       9.30815526
Si       4.51714824       3.71352439       5.85981060
Si       3.74472722       5.45896761       9.33524190
Si       5.93134843       0.98641282       2.91074426
Si       2.46576208       3.76202061       6.35918845
Si       7.46872385       5.78054396       1.70954898
Si       2.05369167       1.52418773       1.38237031
16
Lattice="5.451277753894602 0.31384649552223637 0.3794449920863974 2.1306802428739995 6.645633762015711 -0.32438828290603594 1.0862651233093927 0.3483759535328685 9.982534120347085" Properties=species:S:1:pos:R:3 unique_starting_index=92 config_type=initial n_minim_iter=19 stress="-0.001316619673093313 0.0003147600962739897 0.0011619328792823456 0.0003147600962739897 0.0028412037682356917 0.00021630373199848124 0.0011619328792823456 0.00021630373199848124 0.004403938691285135" pbc="T T T"
Si       3.01524485       7.26330098       4.28997900
Si       0.45275339       0.46130708       0.41654739
Si       3.27252596       5.40649354       5.25893168
Si       3.11351300       3.54213076       4.27298769
Si       7.76005796       4.46238023       8.82158896
Si       4.05969450       3.16730483       7.88870960
Si       4.80931399       2.24124041       4.30425114
Si       3.13686804       5.41308278       3.15413754
Si       3.77824834       5.17214551       7.26124656
Si       2.70710713       2.22732889       9.30405061
Si       4.52071068       3.70502234       5.86179951
Si       3.76563938       5.45230464       9.31952526
Si       5.92866534       0.97576608       2.91442885
Si       2.47673527       3.75622752       6.35505064
Si       7.47707592       5.77132473       1.70770194
Si       2.04939009       1.51717259       1.38660480
16
Lattice="5.46338697973137 0.307738666290477 0.38734500631218943 2.1269259987293885 6.651580238733059 -0.3211136336149543 1.1036624253281118 0.346740368083615 9.974332916192962" Properties=species:S:1:pos:R:3 unique_starting_index=92 config_type=initial n_minim_iter=20 stress="0.00436524836484473 0.000285715072860637 0.0008981772024845265 0.000285715072860637 0.0018984838587108575 0.0020025877697691006 0.0008981772024845265 0.0020025877697691006 -0.004196388900070407" pbc="T T T"
Si       3.01277931       7.26639434       4.28628010
Si       0.45924248       0.46227036       0.41472649
Si       3.28112021       5.41108136       5.26006086
Si       3.13412554       3.55082118       4.26805989
Si       7.78865028       4.45482706       8.81875836
Si       4.08954347       3.17439654       7.89499799
Si       4.82131748       2.23440001       4.31328950
Si       3.12849201       5.41994104       3.15854665
Si       3.78947462       5.16864460       7.25803171
Si       2.73166863       2.22476099       9.30352622
Si       4.52609093       3.69999785       5.86609770
Si       3.77868711       5.45770023       9.30951286
Si       5.94027149       0.96958359       2.92716385
Si       2.48807795       3.75373718       6.34539354
Si       7.49022248       5.77016932       1.71633019
Si       2.05544026       1.51223531       1.38760403
16
Lattice="5.4596660248784845 0.30329145831472776 0.3844793683771196 2.1209401523114777 6.643393141767355 -0.32418993852250394 1.0970685733207608 0.3433196732605599 9.981751270679332" Properties=species:S:1:pos:R:3 unique_starting_index=92 config_type=initial n_minim_iter=21 stress="0.0011594973660014785 0.00144804491080217 -0.0011702903345073635 0.00144804491080217 0.0007267223047363637 0.001040281127113443 -0.0011702903345073635 0.001040281127113443 0.0010824784971647072" pbc="T T T"
Si       2.99253994       7.25645994       4.28180080
Si       0.45729474       0.46369296       0.41877810
Si       3.27224756       5.40284087       5.26275988
Si       3.12972938       3.54990163       4.26206834
Si       7.78047917       4.43792517       8.82180165
Si       4.09937594       3.17252941       7.91099868
Si       4.80929440       2.22603468       4.31470718
Si       3.10785522       5.41053430       3.16209215
Si       3.77882676       5.16208240       7.25652097
Si       2.73796154       2.21613282       9.30821647
Si       4.51519764       3.68934639       5.86993065
Si       3.77414749       5.45092110       9.30781661
Si       5.92537970       0.96261017       2.92309652
Si       2.47652103       3.74353392       6.34667211
Si       7.48083872       5.75643373       1.70824410
Si       2.04853999       1.50416803       1.38998261
