16
Lattice="4.795828727523114 0.12477106849408283 0.5081468996928816 1.5110040429082137 8.566772248761014 -0.3236837326098833 1.210537925130489 0.14383743154797007 9.433712870182221" Properties=species:S:1:pos:R:3 unique_starting_index=92 config_type=initial n_minim_iter=1 energy=-2601.6739184119524 free_energy=-2601.6739184119524 pbc="T T T"
Si       3.43539707       8.65955880       4.00811383
Si       0.60107932       0.31966851       0.53911650
Si       2.77452607       7.02695230       5.23230289
Si       2.22112488       4.06052410       3.35432247
Si       6.04982098       6.30433471       8.55873939
Si       2.49503847       3.86283461       7.67225381
Si       4.60247393       3.11200034       3.71743297
Si       3.10942539       6.31873605       3.08161223
Si       3.01898692       5.79265744       6.97623260
Si       2.09460004       2.38335703       9.13977315
Si       4.06319907       4.32453179       5.80334475
Si       3.53369908       6.83467864       8.79427127
Si       5.45275783       0.90717025       3.21536607
Si       1.68708318       4.91267498       5.56678740
Si       6.59502921       7.26538051       1.87388502
Si       2.16754823       1.59660986       1.27773765
16
Lattice="4.793496555008486 0.12178826359222139 0.4970522254982061 1.511358009246852 8.492798313592246 -0.35901509410047294 1.197138264116964 0.103232819931164 9.357775315447654" Properties=species:S:1:pos:R:3 unique_starting_index=92 config_type=initial n_minim_iter=2 stress="-0.020217703625488113 -0.006452350794251125 -0.001986780678656917 -0.006452350794251125 -0.0005827920282560405 0.005125893956044395 -0.001986780678656917 0.005125893956044395 -0.013462225158124784" pbc="T T T"
Si       3.42827579       8.56462308       3.93710879
Si       0.60135214       0.31486873       0.53285465
Si       2.76789554       6.94396348       5.15781673
Si       2.21621612       4.01049646       3.30849655
Si       6.03553619       6.21292656       8.45812663
Si       2.48368942       3.79673352       7.59221483
Si       4.59555196       3.06958774       3.66908943
Si       3.10376406       6.25063966       3.02652567
Si       3.01037058       5.71418373       6.89255257
Si       2.08122449       2.32539004       9.05491125
Si       4.05314239       4.26352535       5.73495088
Si       3.52019993       6.73690292       8.68922000
Si       5.44599202       0.88563195       3.17820940
Si       1.67996614       4.84648401       5.50131554
Si       6.59064383       7.19364956       1.82221195
Si       2.16465566       1.57707829       1.25827462
16
Lattice="4.8675177566716155 0.14014329429267852 0.49547615674683165 1.5777337282364436 8.416932450831974 -0.4362779186599506 1.2145896603894724 0.023449100769489535 9.364935104469488" Properties=species:S:1:pos:R:3 unique_starting_index=92 config_type=initial n_minim_iter=3 stress="0.0022593108306874785 -0.0005911778689562415 -0.002260895878705245 -0.0005911778689562415 0.003464749625166136 -0.007987033323232865 -0.002260895878705245 -0.007987033323232865 0.0013468086698827757" pbc="T T T"
Si       3.52114173       8.45269600       3.86599941
Si       0.61527303       0.30949948       0.53001335
Si       2.84847917       6.84180414       5.09789228
Si       2.27099321       3.94926828       3.27602568
Si       6.15554549       6.10142273       8.41133578
Si       2.53955335       3.70114388       7.56194150
Si       4.67961977       3.02892870       3.64382831
Si       3.18021383       6.17580645       2.97077358
Si       3.09169002       5.61557459       6.84564617
Si       2.12232569       2.23374479       9.03922584
Si       4.13451283       4.19026237       5.70129234
Si       3.60651065       6.60533786       8.62742036
Si       5.53157155       0.87399285       3.16970604
Si       1.72925817       4.75422872       5.46178572
Si       6.72786837       7.13578603       1.76725131
Si       2.20587421       1.56047586       1.24639380
16
Lattice="4.901891789027268 0.15734566924244653 0.5064019977493088 1.6174010137956776 8.346491716380507 -0.40809104734545576 1.2445360763186122 0.05361230414900104 9.364492880387784" Properties=species:S:1:pos:R:3 unique_starting_index=92 config_type=initial n_minim_iter=4 stress="0.0016462151499737608 -0.0030574054285026505 0.007281455058971404 -0.0030574054285026505 -0.018622383574026593 0.012949033345699919 0.007281455058971404 0.012949033345699919 -0.0077938747614981945" pbc="T T T"
Si       3.57926243       8.39312814       3.90093611
Si       0.62710519       0.30902981       0.53313566
Si       2.90944996       6.80682467       5.12140509
Si       2.30931661       3.92907695       3.29282223
Si       6.24134650       6.08852446       8.43978875
Si       2.58688655       3.69721574       7.57304275
Si       4.72821896       3.03000478       3.66184606
Si       3.22663990       6.14118786       2.99232134
Si       3.14477069       5.60602317       6.86432778
Si       2.16453843       2.25218247       9.04387684
Si       4.19133965       4.18214798       5.71828880
Si       3.67500113       6.58424296       8.64660457
Si       5.57769216       0.89253165       3.18112658
Si       1.77193437       4.73240862       5.47896139
Si       6.80307883       7.10077228       1.81440173
Si       2.22780662       1.55737230       1.25694760
16
Lattice="4.9474215023525865 0.20738285501248285 0.48578111316194467 1.7308147768334767 8.325415364439491 -0.4812113668498665 1.2180760996681694 -0.006407299381954936 9.368758156573737" Properties=species:S:1:pos:R:3 unique_starting_index=92 config_type=initial n_minim_iter=5 stress="-0.006534702191750985 0.004643348785601616 -0.00018460498498656589 0.004643348785601616 0.014793106377309705 -0.002480969087025811 -0.00018460498498656589 -0.002480969087025811 -0.0016098524321877413" pbc="T T T"
Si       3.68040572       8.34353889       3.82892358
Si       0.65482758       0.30778876       0.53257524
Si       3.00905207       6.76299369       5.06171809
Si       2.36731168       3.90130353       3.26029692
Si       6.34892685       6.04824184       8.37333192
Si       2.62118905       3.64492389       7.53083970
Si       4.78507287       3.04375216       3.62311606
Si       3.30182134       6.12508840       2.92509378
Si       3.18866780       5.58959739       6.80485361
Si       2.17111313       2.21156850       9.01688960
Si       4.25955233       4.15693475       5.66462028
Si       3.75191919       6.52913241       8.57679126
Si       5.62312970       0.91839842       3.14845009
Si       1.83067879       4.68498524       5.44967077
Si       6.94308996       7.12468003       1.77135897
Si       2.25359821       1.56157281       1.24062608
16
Lattice="5.06158958718653 0.21180944743345417 0.4553652369093518 1.7905842293615226 8.117666951455139 -0.5608101891608704 1.1787818294497783 -0.07850346639077224 9.465877648428574" Properties=species:S:1:pos:R:3 unique_starting_index=92 config_type=initial n_minim_iter=6 stress="0.005878951794655416 -0.010125209880902963 -0.021679058428043983 -0.010125209880902963 0.010266042414465127 -0.0022954752872528816 -0.021679058428043983 -0.0022954752872528816 0.015879598111265283" pbc="T T T"
Si       3.74045012       8.10058641       3.77543636
Si       0.69746385       0.28443595       0.54710800
Si       3.06923459       6.54416084       5.04893083
Si       2.41427708       3.76936421       3.25730049
Si       6.45991751       5.82405630       8.38121758
Si       2.64172097       3.51166820       7.54468879
Si       4.86678222       2.95568136       3.60920183
Si       3.35029129       5.95442288       2.87750272
Si       3.19591830       5.41309953       6.81224390
Si       2.15732475       2.10563313       9.07822030
Si       4.33234664       4.00769065       5.65485863
Si       3.79323599       6.31497139       8.59701888
Si       5.73297652       0.87406687       3.13133392
Si       1.85629360       4.52285334       5.47671866
Si       7.11586108       6.95460901       1.72722513
Si       2.28386426       1.51010062       1.23131516
16
Lattice="5.165937554143545 0.2675644416210389 0.509152073210184 1.932553927745803 7.956215087227588 -0.6450716958762663 1.311184671826657 -0.17588833911139584 9.50310282089021" Properties=species:S:1:pos:R:3 unique_starting_index=92 config_type=initial n_minim_iter=7 stress="-0.004466898879396505 0.002836915498426906 -0.006368358514849237 0.002836915498426906 0.0016859498923333333 -0.024272398447108694 -0.006368358514849237 -0.024272398447108694 0.010104479359101543" pbc="T T T"
Si       3.95447364       7.91283374       3.70747885
Si       0.75045525       0.26245113       0.56948992
Si       3.29086405       6.35567479       5.01315315
Si       2.55974597       3.66082812       3.25071439
Si       6.77765767       5.65180897       8.39999208
Si       2.83606486       3.38501305       7.52204379
Si       5.03080673       2.91284376       3.63506882
Si       3.51009552       5.82645526       2.83268995
Si       3.38564651       5.25638156       6.79135222
Si       2.33047585       1.99246844       9.08832190
Si       4.53866052       3.89773206       5.65554168
Si       4.05763149       6.12894327       8.58299552
Si       5.89088063       0.87939126       3.18525997
Si       2.03153422       4.37091543       5.46605164
Si       7.38034473       6.87533606       1.75706499
Si       2.34751930       1.48309587       1.24689923
16
Lattice="5.312815732578883 0.3077783879600634 0.5302159352290076 2.0406843189582116 7.992170649646293 -0.573127616229724 1.412187849810193 -0.10682761878635 9.285224053685624" Properties=species:S:1:pos:R:3 unique_starting_index=92 config_type=initial n_minim_iter=8 stress="0.01033620409599982 0.005137381116027257 -0.005945008214597621 0.005137381116027257 0.004051897072089362 -0.0050920032561072946 -0.005945008214597621 -0.0050920032561072946 -0.016419737744672626" pbc="T T T"
Si       4.12394573       8.00144171       3.65731351
Si       0.80765342       0.27337989       0.57133792
Si       3.47185451       6.42037812       4.93918468
Si       2.69218980       3.69777414       3.21573764
Si       7.06325809       5.75316781       8.28293277
Si       2.99480978       3.46728415       7.36042115
Si       5.19954781       2.98702873       3.59738361
Si       3.64452496       5.89657363       2.80125568
Si       3.56330047       5.35288110       6.68283245
Si       2.46807068       2.08326994       8.89450359
Si       4.73048465       3.97749107       5.56424648
Si       4.27051024       6.23846095       8.44243337
Si       6.09398431       0.93187711       3.16095238
Si       2.16728657       4.42916894       5.38626541
Si       7.66310903       6.97213691       1.82838857
Si       2.41666859       1.50506231       1.25166347
16
Lattice="5.310306970753937 0.29515651714714997 0.6006511581377114 2.0069274573381346 7.9805928936274455 -0.5168082369534861 1.5464401176204716 -0.07259817990132143 9.307838564761756" Properties=species:S:1:pos:R:3 unique_starting_index=92 config_type=initial n_minim_iter=9 stress="-0.005329698201818391 0.005683974886047201 -0.006030433378906516 0.005683974886047201 -0.011593593003621578 0.008408701530299923 -0.006030433378906516 0.008408701530299923 -0.03212802253582762" pbc="T T T"
Si       4.12206006       8.01082502       3.71212483
Si       0.84839058       0.29138029       0.57892095
Si       3.52719151       6.42275017       4.98985578
Si       2.74097896       3.68907605       3.27142213
Si       7.15146765       5.74885532       8.40994987
Si       3.09021575       3.48509039       7.40036110
Si       5.21624698       2.98769760       3.67795297
Si       3.64505232       5.90545178       2.85616743
Si       3.65433931       5.37624333       6.75722555
Si       2.58409056       2.11372549       8.93989587
Si       4.78505367       3.98907563       5.64294435
Si       4.36295780       6.25861050       8.52971670
Si       6.14319422       0.91934413       3.26829076
Si       2.23734100       4.43742682       5.44469819
Si       7.66879352       6.96462809       1.97531822
Si       2.40808570       1.49193441       1.29928170
16
Lattice="5.314654690171281 0.21309924191713142 0.692788888173522 1.8533075063439006 7.987101769744072 -0.49771375133854534 1.717934354189241 -0.10017240153413907 9.39372817657096" Properties=species:S:1:pos:R:3 unique_starting_index=92 config_type=initial n_minim_iter=10 stress="0.008002551185348483 -0.005728834765388195 0.012283450530477876 -0.005728834765388195 -0.006306132495952228 0.008812122724078192 0.012283450530477876 0.008812122724078192 -0.008224592041932028" pbc="T T T"
Si       4.03502034       7.98654356       3.78076116
Si       0.86101252       0.28792660       0.58674974
Si       3.50486159       6.39432929       5.05259606
Si       2.74903012       3.65382903       3.33652521
Si       7.19334569       5.65098029       8.58378040
Si       3.16121520       3.44246851       7.48805215
Si       5.21315932       2.91631518       3.78412524
Si       3.58428829       5.88373368       2.91995167
Si       3.68383788       5.34641301       6.85159922
Si       2.70708043       2.08115805       9.03854150
Si       4.81034656       3.93416021       5.75489201
Si       4.39669437       6.21072419       8.65014976
Si       6.18728840       0.82578526       3.40424687
Si       2.27499175       4.42346284       5.52897626
Si       7.58092766       6.88671375       2.10753637
Si       2.40714249       1.45918740       1.35734529
16
Lattice="5.259616596235527 0.21829128283134394 0.7138363687650582 1.8431841599456007 7.91442029898017 -0.47385863633652997 1.726402229732464 -0.07146821024012158 9.567861020791643" Properties=species:S:1:pos:R:3 unique_starting_index=92 config_type=initial n_minim_iter=11 stress="-0.00998187096615696 -0.003266087575701306 -0.0019040101199175566 -0.003266087575701306 -0.013993542273839631 0.011910865430707967 -0.0019040101199175566 0.011910865430707967 0.0012871167907147125" pbc="T T T"
Si       3.99773477       7.93260068       3.86236589
Si       0.85607661       0.28134599       0.58609310
Si       3.49676574       6.34491426       5.14832474
Si       2.76185984       3.61719223       3.42281955
Si       7.13913901       5.61062313       8.78775082
Si       3.15156588       3.42568947       7.62513834
Si       5.14434913       2.89797812       3.87116361
Si       3.54610867       5.85829374       2.98244939
Si       3.67518028       5.33473336       6.99661298
Si       2.70391629       2.09727359       9.21687475
Si       4.77379732       3.92180072       5.88341978
Si       4.36935119       6.17800392       8.83803668
Si       6.12878584       0.83520617       3.49714808
Si       2.30417614       4.40271802       5.68045626
Si       7.52495371       6.85374763       2.19585712
Si       2.40365870       1.45527337       1.41160684
16
Lattice="5.20668604895835 0.2024291144084854 0.7367711860595516 1.7956346332962725 7.914760193201848 -0.4645945938426605 1.750170634627207 -0.0695124652124979 9.638256517188209" Properties=species:S:1:pos:R:3 unique_starting_index=92 config_type=initial n_minim_iter=12 stress="-0.0074883651895112004 -0.0003911394571638519 -0.0017176144059497848 -0.0003911394571638519 0.004486614749617528 0.010534144544221314 -0.0017176144059497848 0.010534144544221314 0.012239732071464306" pbc="T T T"
Si       3.94103165       7.93350493       3.88856541
Si       0.84954564       0.27065685       0.58223952
Si       3.46633222       6.32845436       5.17591010
Si       2.76531644       3.59957327       3.46595505
Si       7.07649254       5.57864716       8.89063711
Si       3.13931479       3.41889798       7.66988261
Si       5.06846448       2.87565923       3.91856460
Si       3.49446036       5.87373140       3.00993329
Si       3.66689261       5.36075802       7.08224069
Si       2.71122010       2.10601885       9.29698227
Si       4.73287900       3.91277150       5.93961846
Si       4.31758041       6.16597055       8.90597688
Si       6.06530421       0.83356446       3.55257482
Si       2.31149933       4.40100905       5.75176371
Si       7.43235324       6.85171563       2.23800827
Si       2.39334148       1.45224828       1.44771499
16
Lattice="5.339766894073007 0.20261444632308126 0.8115325473069459 1.838324301491135 7.772197461680465 -0.48126354906402086 1.9292832805519964 -0.1148498732700693 9.663970553116297" Properties=species:S:1:pos:R:3 unique_starting_index=92 config_type=initial n_minim_iter=13 stress="0.031023939164195664 0.004107436042994229 -0.017005223246361043 0.004107436042994229 0.020051361360112985 -0.0023626371798992113 -0.017005223246361043 -0.0023626371798992113 0.02643624860098042" pbc="T T T"
Si       4.07979570       7.77463961       3.85976631
Si       0.92715937       0.26198037       0.58299570
Si       3.65069691       6.13808946       5.17488814
Si       2.94544362       3.48477850       3.50784296
Si       7.37049703       5.38531563       8.99353042
Si       3.32346643       3.31129241       7.64746851
Si       5.18204248       2.79047540       3.98362377
Si       3.60153213       5.79496525       3.01108963
Si       3.87052422       5.30125480       7.09083918
Si       2.91810846       2.05270333       9.33551888
Si       4.92211543       3.81460407       5.97619006
Si       4.51503646       6.00767400       8.93230564
Si       6.22988494       0.83577808       3.64108226
Si       2.50178572       4.28525298       5.80886532
Si       7.64184818       6.74750748       2.33074030
Si       2.46064780       1.40940202       1.50027480
16
Lattice="5.405027465297843 0.20826279495647373 0.8786773574787654 1.8644916357508325 7.724213574403279 -0.4699353917348724 2.079154509819446 -0.126222473832867 9.655901872776653" Properties=species:S:1:pos:R:3 unique_starting_index=92 config_type=initial n_minim_iter=14 stress="0.02761168082204952 -0.0006514403067069116 0.005110182663661594 -0.0006514403067069116 0.009130689778084714 -0.012215411768275774 0.005110182663661594 -0.012215411768275774 0.022093691585003974" pbc="T T T"
Si       4.17626384       7.72025886       3.85931048
Si       0.97532555       0.26952580       0.58993610
Si       3.77864821       6.06922386       5.17481680
Si       3.06458290       3.44284931       3.54256669
Si       7.59122551       5.31987792       9.06187308
Si       3.46929171       3.29125751       7.62389499
Si       5.25311580       2.75984378       4.03970088
Si       3.68041745       5.78769083       3.03104252
Si       4.00572203       5.27822435       7.10527789
Si       3.08622933       2.04894478       9.34599125
Si       5.04897127       3.79123447       6.00954012
Si       4.66822345       5.94985789       8.94848059
Si       6.32839998       0.85609033       3.70803698
Si       2.64561374       4.24520406       5.83941956
Si       7.75383111       6.71164788       2.42331917
Si       2.50106490       1.39499605       1.53884941
16
Lattice="5.385820312894421 0.21814397271731534 0.8930569357783474 1.8698854775916902 7.752002887651421 -0.42735314835353405 2.103646168602278 -0.08309244639182824 9.63815883291044" Properties=species:S:1:pos:R:3 unique_starting_index=92 config_type=initial n_minim_iter=15 stress="0.013478256995530732 0.002893117406909293 0.011781963739554438 0.002893117406909293 0.016250699592698117 -0.008225533738269477 0.011781963739554438 -0.008225533738269477 0.014609282839249272" pbc="T T T"
Si       4.18348230       7.76700358       3.88419607
Si       0.98082256       0.27812606       0.58806367
Si       3.79407898       6.10269582       5.19252017
Si       3.08875049       3.46804988       3.56762124
Si       7.60565527       5.37389116       9.09466978
Si       3.48700132       3.34150100       7.61716299
Si       5.22735187       2.77987836       4.06446399
Si       3.69532620       5.84438635       3.06612200
Si       4.03171229       5.33666755       7.12000329
Si       3.11991357       2.11135845       9.34766120
Si       5.04505844       3.84130044       6.02910444
Si       4.67298942       6.00366033       8.97210607
Si       6.31089247       0.89943638       3.72208392
Si       2.68202506       4.28359722       5.86512218
Si       7.72600508       6.75215440       2.45791571
Si       2.49899297       1.40743526       1.55603679
16
Lattice="5.405920998801544 0.21776922342178726 0.8936628815835906 1.8761187897329772 7.694141830285418 -0.4189083865626402 2.109570117914392 -0.07488693201261067 9.639262846905941" Properties=species:S:1:pos:R:3 unique_starting_index=92 config_type=initial n_minim_iter=16 stress="-0.0009211535609157044 -0.0008710160771620299 0.0010693697573856745 -0.0008710160771620299 -0.004262988962506494 -0.008862078674341215 0.0010693697573856745 -0.008862078674341215 -0.008601751369665758" pbc="T T T"
Si       4.18349135       7.70663170       3.87512081
Si       1.00462477       0.27525263       0.58425130
Si       3.81274966       6.04551335       5.18396906
Si       3.12200437       3.44020590       3.58872431
Si       7.65304518       5.32064546       9.10822448
Si       3.49459244       3.32370748       7.60305493
Si       5.21038409       2.74751464       4.08313666
Si       3.70791855       5.83190893       3.06093660
Si       4.05254582       5.31907637       7.13207881
Si       3.14600750       2.13120512       9.34817735
Si       5.04559310       3.82051294       6.02702501
Si       4.66044394       5.96055012       8.99157948
Si       6.32975561       0.90679445       3.72047877
Si       2.71945689       4.24608524       5.88686228
Si       7.73907609       6.70406801       2.46828300
Si       2.50050123       1.39294436       1.56670463
16
Lattice="5.34206784546127 0.21056679580401552 0.8119336091536182 1.8472785609596285 7.6799083788267914 -0.40245797294039665 1.9336154517291022 -0.030868178916509226 9.617641233802852" Properties=species:S:1:pos:R:3 unique_starting_index=92 config_type=initial n_minim_iter=17 stress="-0.029234062626366304 0.0002934923110492536 -0.006686884216494677 0.0002934923110492536 -0.0016298718254891432 0.000974330554663973 -0.006686884216494677 0.000974330554663973 -0.013573644381230397" pbc="T T T"
Si       4.07358787       7.70852818       3.88253889
Si       0.97541047       0.27522535       0.56514339
Si       3.67226925       6.05986644       5.17298997
Si       3.01021515       3.47356616       3.57837969
Si       7.46227309       5.34854475       9.01845611
Si       3.33462899       3.35112088       7.60690408
Si       5.08598834       2.73927973       4.05161420
Si       3.62435549       5.83715228       3.02518186
Si       3.90402877       5.32535633       7.11977108
Si       2.98980501       2.19159842       9.31569191
Si       4.86910329       3.84031754       5.97239757
Si       4.43406139       5.98442279       8.99402025
Si       6.21097667       0.90809124       3.60972472
Si       2.58620946       4.26057564       5.84577253
Si       7.58803714       6.67412963       2.37009124
Si       2.44545010       1.39380284       1.52621133
16
Lattice="5.422965683111596 0.21519592300494592 0.6504893196905104 1.8907542842305087 7.472245460992016 -0.3403524480091892 1.6379976067071964 0.09069467373423223 9.574625518219442" Properties=species:S:1:pos:R:3 unique_starting_index=92 config_type=initial n_minim_iter=18 stress="-0.014270271347555596 -0.00980626413919499 -0.003952713363379536 -0.00980626413919499 -0.027575533643040342 0.021806952357984227 -0.003952713363379536 0.021806952357984227 -0.0024310005348517206" pbc="T T T"
Si       4.01061447       7.58051680       3.91168792
Si       0.96498909       0.29950615       0.50126131
Si       3.54882744       5.94090560       5.14678705
Si       2.93360586       3.49634459       3.62415441
Si       7.45792452       5.28549277       8.84497200
Si       3.14569205       3.35168725       7.62203529
Si       4.97841047       2.65625228       4.04414167
Si       3.62023365       5.74165099       2.94078378
Si       3.77611987       5.27927871       7.11702929
Si       2.83035800       2.30751599       9.29166791
Si       4.65753761       3.82248426       5.85710123
Si       4.07346984       5.90533780       9.05910647
Si       6.21616558       0.90163339       3.38570509
Si       2.48769086       4.21424404       5.77877522
Si       7.56789501       6.51713416       2.17852068
Si       2.43645694       1.37207803       1.46307331
16
Lattice="5.454016194208173 0.23295217020104902 0.5897696119935795 1.9345005710578809 7.432646887644489 -0.31314336264441806 1.5305921024041762 0.143323320694993 9.527122358788024" Properties=species:S:1:pos:R:3 unique_starting_index=92 config_type=initial n_minim_iter=19 stress="-0.018844777863906953 -0.004077632543030871 -0.008015008321992284 -0.004077632543030871 -0.022492624368101195 0.032347587495114856 -0.008015008321992284 0.032347587495114856 -0.008645365524134748" pbc="T T T"
Si       4.02017312       7.58147882       3.92292249
Si       0.96764160       0.31152363       0.47280566
Si       3.53644114       5.92801864       5.10863705
Si       2.93115111       3.53819284       3.65546958
Si       7.48898304       5.29523979       8.75516474
Si       3.09753555       3.38255065       7.58644339
Si       4.93108614       2.64183615       4.04588944
Si       3.63540234       5.74623176       2.89307944
Si       3.76101831       5.30481082       7.08807438
Si       2.79390960       2.38336427       9.25560253
Si       4.57200554       3.84378010       5.78600204
Si       3.93719479       5.91043380       9.06567163
Si       6.21784749       0.92756482       3.28275341
Si       2.48872954       4.21482940       5.74002369
Si       7.57249214       6.51056666       2.10480265
Si       2.43209649       1.37225149       1.44196752
16
Lattice="5.476337983038441 0.23539026395226217 0.5536212168282505 1.9536139892391728 7.435056185695125 -0.36362037268300995 1.474284457848091 0.09759332395291306 9.452549593009698" Properties=species:S:1:pos:R:3 unique_starting_index=92 config_type=initial n_minim_iter=20 stress="-0.0055769033003301065 -0.004988688810387938 0.0017685500636000432 -0.004988688810387938 -0.01900328008519988 0.005742774496498376 0.0017685500636000432 0.005742774496498376 -0.03466704120240394" pbc="T T T"
Si       4.02170528       7.57187981       3.85164326
Si       0.95558212       0.30920938       0.45490225
Si       3.53936890       5.90171590       4.99622009
Si       2.93298860       3.56114407       3.65970650
Si       7.50416258       5.24379527       8.61629464
Si       3.09516234       3.34376094       7.48714225
Si       4.91423256       2.60177860       4.01246062
Si       3.63668389       5.74088020       2.80945041
Si       3.75154420       5.28259240       6.97469937
Si       2.77794871       2.35896340       9.17611967
Si       4.53140689       3.80925884       5.66829504
Si       3.85796624       5.85837743       8.97303753
Si       6.23222501       0.91204706       3.19595577
Si       2.47571659       4.17623483       5.63605356
Si       7.56960588       6.51614735       2.00128560
Si       2.42582917       1.36179021       1.41611136
16
Lattice="5.440777764716509 0.245116158561689 0.63804189112321 1.9558258622977536 7.475084683595894 -0.3898723706766622 1.621160101586786 0.04796852892692465 9.563843519075585" Properties=species:S:1:pos:R:3 unique_starting_index=92 config_type=initial n_minim_iter=21 stress="-0.005845854778444331 0.002475695645285975 0.015989443458682393 0.002475695645285975 0.020476883325540315 -0.0049753513146363615 0.015989443458682393 -0.0049753513146363615 -0.004301583326608055" pbc="T T T"
Si       4.08749989       7.60527042       3.89887393
Si       0.94216655       0.29787970       0.47514621
Si       3.63793226       5.88886125       5.01733792
Si       3.03508700       3.57470795       3.75868980
Si       7.55788704       5.21365179       8.79073830
Si       3.25234724       3.31092895       7.51617354
Si       4.95089373       2.58628126       4.09359116
Si       3.62403832       5.76186738       2.86293685
Si       3.86299627       5.31010858       7.02738993
Si       2.90488255       2.32149994       9.31248734
Si       4.60337285       3.79652173       5.74640086
Si       3.98609190       5.83644992       9.04016008
Si       6.23568525       0.92539101       3.30069954
Si       2.55793176       4.16784776       5.74096498
Si       7.56661383       6.58226563       2.11807311
Si       2.42138140       1.35685566       1.48238502
