8
Lattice="5.389973594653523 5.795146130488761e-49 7.08140052816814e-33 5.010790406804408e-48 6.477695612582885 -4.344048486599444e-15 -7.081400528168142e-33 3.6146043341683805e-15 5.389973594653523" Properties=species:S:1:pos:R:3 unique_starting_index=2 config_type=initial n_minim_iter=1 energy=-1307.5712549712307 free_energy=-1307.5712549712307 pbc="T T T"
Si       2.69716339       2.59991003       3.88965393
Si       2.69716339       2.59991003       1.49599028
Si       3.89399521       3.87778558       2.69282210
Si       1.50033156       3.87778558       2.69282210
Si       5.39215018       3.87778558       1.19466713
Si       0.00217659       3.87778558       4.19097708
Si       4.19531836       2.59991003       5.38780890
Si       1.19900841       2.59991003      -0.00216470
8
Lattice="5.401946722180717 8.381264941863704e-49 7.097130941333615e-33 4.9341487077980493e-48 6.466511495428649 -4.065226641146692e-15 -7.097130941333615e-33 3.864383722978348e-15 5.401946722180717" Properties=species:S:1:pos:R:3 unique_starting_index=2 config_type=initial n_minim_iter=2 stress="0.02924204565987142 -2.5269855058299374e-15 8.739604711749417e-16 -2.5269855058299374e-15 0.01898714798601466 -9.125316304470678e-16 8.739604711749417e-16 -9.125316304470678e-16 0.02924204565987155" pbc="T T T"
Si       2.70315479       2.59578380       3.89746445
Si       2.70315479       2.59578380       1.50014326
Si       3.90181538       3.87072769       2.69880386
Si       1.50449419       3.87072769       2.69880386
Si       5.40412815       3.87072769       1.19649109
Si       0.00218142       3.87072769       4.20111662
Si       4.20546755       2.59578380       5.39977722
Si       1.20084202       2.59578380      -0.00216950
8
Lattice="5.400725154331532 7.510070357019224e-49 7.095526033431842e-33 4.8694102175089716e-48 6.457166793012068 -4.092326539732218e-15 -7.095526033431842e-33 3.834827238526305e-15 5.400725154331532" Properties=species:S:1:pos:R:3 unique_starting_index=2 config_type=initial n_minim_iter=3 stress="0.015119585071137694 -3.658270741626292e-15 1.4051461889532163e-15 -3.658270741626292e-15 0.0009730091331533157 -7.814824686622355e-16 1.4051461889532163e-15 -7.814824686622355e-16 0.015119585071137562" pbc="T T T"
Si       2.70254351       2.59235743       3.89618508
Si       2.70254351       2.59235743       1.50020205
Si       3.90053503       3.86480936       2.69819356
Si       1.50455199       3.86480936       2.69819356
Si       5.40290609       3.86480936       1.19582250
Si       0.00218093       3.86480936       4.20056462
Si       4.20491457       2.59235743       5.39855614
Si       1.20017245       2.59235743      -0.00216901
8
Lattice="5.398916114366599 7.522807823345415e-49 7.093149298863817e-33 4.8929221591772534e-48 6.478955673003572 -4.111244778281416e-15 -7.093149298863817e-33 3.830809137026036e-15 5.398916114366599" Properties=species:S:1:pos:R:3 unique_starting_index=2 config_type=initial n_minim_iter=4 stress="-8.646431028325973e-05 -8.87705701204481e-15 2.309011261399284e-15 -8.87705701204481e-15 0.0020022337569578132 -6.490930645612161e-15 2.309011261399284e-15 -6.490930645612161e-15 -8.646431028318449e-05" pbc="T T T"
Si       2.70163826       2.60393180       3.89527642
Si       2.70163826       2.60393180       1.49930312
Si       3.89962490       3.87502387       2.69728977
Si       1.50365161       3.87502387       2.69728977
Si       5.40109631       3.87502387       1.19581836
Si       0.00218020       3.87502387       4.19876118
Si       4.20310967       2.60393180       5.39674783
Si       1.20016685       2.60393180      -0.00216829
8
Lattice="5.405145188986299 7.455240711048693e-49 7.101333118603809e-33 4.868742756902445e-48 6.457319790670679 -4.097166661047648e-15 -7.101333118603809e-33 3.833694001160896e-15 5.405145188986299" Properties=species:S:1:pos:R:3 unique_starting_index=2 config_type=initial n_minim_iter=5 stress="-0.009850172023179308 -1.141622579196337e-14 4.575754902378816e-15 -1.141622579196337e-14 -0.0017137597850604219 -6.149892521251982e-15 4.575754902378816e-15 -6.149892521251982e-15 -0.00985017202317912" pbc="T T T"
Si       2.70475531       2.59708219       3.90251173
Si       2.70475531       2.59708219       1.49829188
Si       3.90686523       3.86023760       2.70040181
Si       1.50264539       3.86023760       2.70040181
Si       5.40732790       3.86023760       1.19993913
Si       0.00218272       3.86023760       4.20086448
Si       4.20521798       2.59708219       5.40297440
Si       1.20429264       2.59708219      -0.00217079
8
Lattice="5.431122629313528 7.277402120420367e-49 7.13546253620173e-33 4.827868720548037e-48 6.425025563734585 -4.0807680402908836e-15 -7.13546253620173e-33 3.8447453514726e-15 5.431122629313528" Properties=species:S:1:pos:R:3 unique_starting_index=2 config_type=initial n_minim_iter=6 stress="0.0013921951601044702 -6.339626640841315e-15 3.0726938446708387e-15 -6.339626640841315e-15 0.0030973500686471717 -5.828987666700488e-15 3.0726938446708387e-15 -5.828987666700488e-15 0.001392195160104545" pbc="T T T"
Si       2.71775452       2.59320769       3.92857917
Si       2.71775452       2.59320769       1.49818101
Si       3.93295360       3.83181787       2.71338009
Si       1.50255544       3.83181787       2.71338009
Si       5.43331584       3.83181787       1.21301786
Si       0.00219321       3.83181787       4.21374233
Si       4.21811676       2.59320769       5.42894141
Si       1.21739229       2.59320769      -0.00218122
8
Lattice="5.4313572604669 7.221683365869513e-49 7.135770796927732e-33 4.827860821180506e-48 6.4299239976662 -4.086389822060673e-15 -7.135770796927732e-33 3.843108158752425e-15 5.4313572604669" Properties=species:S:1:pos:R:3 unique_starting_index=2 config_type=initial n_minim_iter=7 stress="-0.00023684993124549963 -1.1178879582351442e-14 1.4595448067199528e-15 -1.1178879582351442e-14 -3.738741126403945e-05 -2.01086223402964e-15 1.4595448067199528e-15 -2.01086223402964e-15 -0.00023684993124570565" pbc="T T T"
Si       2.71787193       2.59607227       3.92854450
Si       2.71787193       2.59607227       1.49845013
Si       3.93291911       3.83385172       2.71349731
Si       1.50282475       3.83385172       2.71349731
Si       5.43355056       3.83385172       1.21286587
Si       0.00219330       3.83385172       4.21412876
Si       4.21850338       2.59607227       5.42917594
Si       1.21724048       2.59607227      -0.00218132
8
Lattice="5.432565153792697 7.22946106046147e-49 7.137357739105656e-33 4.822286959662087e-48 6.429537437424825 -4.081485483701267e-15 -7.13735773910566e-33 3.847727974223715e-15 5.432565153792697" Properties=species:S:1:pos:R:3 unique_starting_index=2 config_type=initial n_minim_iter=8 stress="6.763140691556448e-05 -7.896337142988028e-15 2.1848406270942917e-15 -7.896337142988028e-15 5.9402704190100245e-05 -1.4972423001732688e-15 2.1848406270942917e-15 -1.4972423001732688e-15 6.763140691565809e-05" pbc="T T T"
Si       2.71847637       2.59649515       3.92973520
Si       2.71847637       2.59649515       1.49846635
Si       3.93411079       3.83304229       2.71410078
Si       1.50284194       3.83304229       2.71410078
Si       5.43475894       3.83304229       1.21345262
Si       0.00219379       3.83304229       4.21474893
Si       4.21912452       2.59649515       5.43038335
Si       1.21782821       2.59649515      -0.00218180
