20
Lattice="8.552327641984247 -3.4139632548506895e-49 -3.333048418950677e-33 1.1510353998573051e-48 7.123059501976001 2.223863741304263e-15 2.0517066015613948e-33 -1.6436129916966345e-15 5.264510104926484" Properties=species:S:1:pos:R:3 unique_starting_index=96 config_type=initial n_minim_iter=1 energy=-3255.1002522281433 free_energy=-3255.1002522281433 pbc="T T T"
Si       7.03234728       4.21797850       1.72734913
Si       1.51998036       2.90508100       1.72734913
Si       5.01691219       1.52019366       4.04291701
Si       3.53541545       5.60286585       4.04291701
Si       5.79614418       0.65644875       1.72734913
Si       2.75618346       6.46661075       1.72734913
Si       7.81157927       5.08172341       4.04291701
Si       0.74074837       2.04133610       4.04291701
Si       2.72380068       0.80037624       4.54580123
Si       5.82852696       6.32268327       4.54580123
Si       0.69858183       5.23524626       1.52952599
Si       7.85374581       1.88781324       1.52952599
Si       1.55236314       4.36190599       4.54580123
Si       6.99996450       2.76115352       4.54580123
Si       3.57758199       1.67371651       1.52952599
Si       4.97474565       5.44934299       1.52952599
Si      -0.00000000      -0.00000000       5.42011260
Si      -0.00000000       7.12305950       2.94791207
Si       4.27616382       3.56152975       5.42011260
Si       4.27616382       3.56152975       2.94791207
20
Lattice="8.525515007392112 -3.4011814556957996e-49 -3.325330032331646e-33 1.1422138750787828e-48 7.116360495083669 2.2034351154676753e-15 2.0511059380817543e-33 -1.6583267407462897e-15 5.267393210321927" Properties=species:S:1:pos:R:3 unique_starting_index=96 config_type=initial n_minim_iter=2 stress="-0.002390257651729539 3.530502191932429e-17 3.348683774539763e-17 3.530502191932429e-17 -0.0036493204013736433 2.0829597083670583e-17 3.348683774539763e-17 2.0829597083670583e-17 -0.004815268898939082" pbc="T T T"
Si       7.01040302       4.21423666       1.72852374
Si       1.51511199       2.90212384       1.72852374
Si       5.00126651       1.51837391       4.04511781
Si       3.52424850       5.59798659       4.04511781
Si       5.77786949       0.65605641       1.72852374
Si       2.74764552       6.46030409       1.72852374
Si       7.78700601       5.07655416       4.04511781
Si       0.73850900       2.03980634       4.04511781
Si       2.71577910       0.79933904       4.54823369
Si       5.80973591       6.31702146       4.54823369
Si       0.69640798       5.22995252       1.53036213
Si       7.82910703       1.88640797       1.53036213
Si       1.54697841       4.35751928       4.54823369
Si       6.97853660       2.75884121       4.54823369
Si       3.56634953       1.67177228       1.53036213
Si       4.95916548       5.44458822       1.53036213
Si      -0.00000000      -0.00000000       5.42308423
Si      -0.00000000       7.11636050       2.94920961
Si       4.26275750       3.55818025       5.42308423
Si       4.26275750       3.55818025       2.94920961
20
Lattice="8.498570902564929 -3.23852397290894e-49 -3.3334999158482716e-33 1.1504481668695481e-48 7.133002636596682 2.2024555076931356e-15 2.0527321772796207e-33 -1.6734936667416525e-15 5.3012685596485865" Properties=species:S:1:pos:R:3 unique_starting_index=96 config_type=initial n_minim_iter=3 stress="-0.0030492289929694373 2.5133046512006805e-17 -1.4190780565291818e-17 2.5133046512006805e-17 0.0055794035152913115 4.829121248003775e-17 -1.4190780565291818e-17 4.829121248003775e-17 0.002640700961543432" pbc="T T T"
Si       6.98870957       4.22514898       1.74084145
Si       1.50986133       2.90785365       1.74084145
Si       4.98591729       1.51993480       4.07096763
Si       3.51265362       5.61306783       4.07096763
Si       5.75914678       0.65864767       1.74084145
Si       2.73942412       6.47435497       1.74084145
Si       7.76193907       5.08643612       4.07096763
Si       0.73663183       2.04656652       4.07096763
Si       2.70970662       0.79973180       4.57728172
Si       5.78886428       6.33327083       4.57728172
Si       0.69434191       5.24031882       1.54018752
Si       7.80422899       1.89268382       1.54018752
Si       1.53957883       4.36623312       4.57728172
Si       6.95899208       2.76676952       4.57728172
Si       3.55494354       1.67381750       1.54018752
Si       4.94362737       5.45918514       1.54018752
Si      -0.00000000      -0.00000000       5.45795203
Si      -0.00000000       7.13300264       2.96655016
Si       4.24928545       3.56650132       5.45795203
Si       4.24928545       3.56650132       2.96655016
20
Lattice="8.519160739916883 -3.1931443392126737e-49 -3.3657145922577665e-33 1.1423454271026944e-48 7.064608535944392 2.192913254236254e-15 2.0582249293316223e-33 -1.6806670553510491e-15 5.353500937248778" Properties=species:S:1:pos:R:3 unique_starting_index=96 config_type=initial n_minim_iter=4 stress="-0.0013082781030743968 4.053097665635606e-17 2.7717943225006662e-17 4.053097665635606e-17 -0.003810858139326153 8.950154473078177e-17 2.7717943225006662e-17 8.950154473078177e-17 0.005391836498506828" pbc="T T T"
Si       7.00773630       4.18849475       1.76367926
Si       1.51142444       2.87611379       1.76367926
Si       5.00031240       1.49750233       4.10972672
Si       3.51884834       5.56710621       4.10972672
Si       5.77100481       0.65619048       1.76367926
Si       2.74815593       6.40841806       1.76367926
Si       7.77842871       5.02980660       4.10972672
Si       0.74073203       2.03480194       4.10972672
Si       2.72703059       0.78536007       4.62195446
Si       5.79213015       6.27924847       4.62195446
Si       0.69663383       5.18287027       1.55487180
Si       7.82252691       1.88173827       1.55487180
Si       1.53254978       4.31766434       4.62195446
Si       6.98661096       2.74694420       4.62195446
Si       3.56294654       1.65056600       1.55487180
Si       4.95621420       5.41404253       1.55487180
Si      -0.00000000      -0.00000000       5.51204443
Si      -0.00000000       7.06460854       2.98862865
Si       4.25958037       3.53230427       5.51204443
Si       4.25958037       3.53230427       2.98862865
20
Lattice="8.521240067742317 -3.2538501655898057e-49 -3.3414844110633624e-33 1.1487851221076088e-48 7.111709719529772 2.201037661918018e-15 2.048106683823065e-33 -1.6655466115845595e-15 5.28820637130464" Properties=species:S:1:pos:R:3 unique_starting_index=96 config_type=initial n_minim_iter=5 stress="-0.0003993608990078293 1.2112324339728063e-16 -4.974744209525721e-17 1.2112324339728063e-16 -0.0028426169960704493 1.0282110540355503e-16 -4.974744209525721e-17 1.0282110540355503e-16 -0.0026084960482927262" pbc="T T T"
Si       7.01206933       4.22438390       1.75307013
Si       1.50917074       2.88732582       1.75307013
Si       5.00704679       1.49760239       4.05571881
Si       3.51419328       5.61410733       4.05571881
Si       5.76979077       0.66852904       1.75307013
Si       2.75144930       6.44318068       1.75307013
Si       7.77481332       5.05345725       4.05571881
Si       0.74642675       2.05825247       4.05571881
Si       2.74365701       0.78138710       4.56575572
Si       5.77758306       6.33032262       4.56575572
Si       0.69807073       5.20830820       1.53415319
Si       7.82316934       1.90340152       1.53415319
Si       1.51696303       4.33724196       4.56575572
Si       7.00427704       2.77446776       4.56575572
Si       3.56254931       1.65245334       1.53415319
Si       4.95869076       5.45925638       1.53415319
Si      -0.00000000      -0.00000000       5.44504486
Si      -0.00000000       7.11170972       2.94107363
Si       4.26062003       3.55585486       5.44504486
Si       4.26062003       3.55585486       2.94107363
20
Lattice="8.489449213825553 -3.197971789128087e-49 -3.343018004700895e-33 1.1564976635080447e-48 7.1478970896235445 2.217251963423737e-15 2.0521576741504717e-33 -1.6719558414797703e-15 5.320413249723672" Properties=species:S:1:pos:R:3 unique_starting_index=96 config_type=initial n_minim_iter=6 stress="0.0028537378176464725 2.342683252953476e-17 6.679362859065014e-17 2.342683252953476e-17 0.011204700735992492 1.647104724800842e-16 6.679362859065014e-17 1.647104724800842e-16 0.004148265081215704" pbc="T T T"
Si       6.98492286       4.27149809       1.80027999
Si       1.50452635       2.87639900       1.80027999
Si       5.01695523       1.50899296       4.06713604
Si       3.47249398       5.63890413       4.06713604
Si       5.74925096       0.69754954       1.80027999
Si       2.74019825       6.45034755       1.80027999
Si       7.71721859       5.08294151       4.06713604
Si       0.77223063       2.06495558       4.06713604
Si       2.75362915       0.77253291       4.59404089
Si       5.73582006       6.37536418       4.59404089
Si       0.70401716       5.21704060       1.53265820
Si       7.78543205       1.93085649       1.53265820
Si       1.49109546       4.34648145       4.59404089
Si       6.99835376       2.80141564       4.59404089
Si       3.54070745       1.64309205       1.53265820
Si       4.94874177       5.50480503       1.53265820
Si      -0.00000000      -0.00000000       5.47772689
Si      -0.00000000       7.14789709       2.93368684
Si       4.24472461       3.57394854       5.47772689
Si       4.24472461       3.57394854       2.93368684
20
Lattice="8.501595757628936 -3.1996999200049626e-49 -3.376292831482356e-33 1.1465467530844861e-48 7.0571139246611265 2.218856458094579e-15 2.058675418200906e-33 -1.6687065966891864e-15 5.382000484075139" Properties=species:S:1:pos:R:3 unique_starting_index=96 config_type=initial n_minim_iter=7 stress="0.0010398216067715026 2.7957364710258436e-17 2.2185818375441537e-17 2.7957364710258436e-17 -0.0006074062796777356 1.9529965325747346e-16 2.2185818375441537e-17 1.9529965325747346e-16 -0.0027149795802661482" pbc="T T T"
Si       6.99269680       4.23709498       1.85937301
Si       1.50889895       2.82001894       1.85937301
Si       5.05293810       1.51945991       4.10123290
Si       3.44865766       5.53765401       4.10123290
Si       5.75969683       0.70853802       1.85937301
Si       2.74189892       6.34857591       1.85937301
Si       7.69945554       5.04801687       4.10123290
Si       0.80214022       2.00909705       4.10123290
Si       2.76291329       0.76380644       4.65052180
Si       5.73868247       6.29330748       4.65052180
Si       0.71615942       5.14095028       1.53169207
Si       7.78543634       1.91616365       1.53169207
Si       1.48788459       4.29236341       4.65052180
Si       7.01371116       2.76475052       4.65052180
Si       3.53463846       1.61239332       1.53169207
Si       4.96695730       5.44472061       1.53169207
Si      -0.00000000      -0.00000000       5.54076234
Si      -0.00000000       7.05711392       2.94828895
Si       4.25079788       3.52855696       5.54076234
Si       4.25079788       3.52855696       2.94828895
20
Lattice="8.47176570316216 -2.788861987799513e-49 -3.456723192025803e-33 1.1489929394593071e-48 6.933654739980476 2.214926531301479e-15 2.07305836380423e-33 -1.7011224783933448e-15 5.563077805034434" Properties=species:S:1:pos:R:3 unique_starting_index=96 config_type=initial n_minim_iter=8 stress="-0.005991296925438625 5.92172926249861e-17 -1.014253408887055e-16 5.92172926249861e-17 -0.007832956120467074 1.2628495611367312e-16 -1.014253408887055e-16 1.2628495611367312e-16 0.00965024145327299" pbc="T T T"
Si       6.98413386       4.17342824       1.97085391
Si       1.48763184       2.76022650       1.97085391
Si       5.04247430       1.52848886       4.22882857
Si       3.42929140       5.40516588       4.22882857
Si       5.72351469       0.70660087       1.97085391
Si       2.74825101       6.22705387       1.97085391
Si       7.66517425       4.99531623       4.22882857
Si       0.80659145       1.93833851       4.22882857
Si       2.78962544       0.75288449       4.82111598
Si       5.68214026       6.18077025       4.82111598
Si       0.72407571       5.03908735       1.54317739
Si       7.74768999       1.89456739       1.54317739
Si       1.44625741       4.21971186       4.82111598
Si       7.02550829       2.71394288       4.82111598
Si       3.51180714       1.57225998       1.54317739
Si       4.95995856       5.36139476       1.54317739
Si      -0.00000000      -0.00000000       5.72926605
Si      -0.00000000       6.93365474       3.02017704
Si       4.23588285       3.46682737       5.72926605
Si       4.23588285       3.46682737       3.02017704
20
Lattice="8.461041729811402 -2.4831281414252822e-49 -3.4926502997647965e-33 1.1520966892080614e-48 6.918976803250781 2.1869412371157224e-15 2.0625956918459764e-33 -1.7299287867042842e-15 5.599048507243656" Properties=species:S:1:pos:R:3 unique_starting_index=96 config_type=initial n_minim_iter=9 stress="-0.00357445671703433 3.2114109684548155e-17 -1.7292792704623556e-16 3.2114109684548155e-17 -0.00670050426517971 3.9409875405777416e-17 -1.7292792704623556e-16 3.9409875405777416e-17 0.00025762757662458274" pbc="T T T"
Si       6.98536145       4.17625521       2.02270770
Si       1.47568028       2.74272159       2.02270770
Si       5.04607336       1.54641168       4.24737185
Si       3.41496837       5.37256512       4.24737185
Si       5.70620115       0.71676681       2.02270770
Si       2.75484058       6.20220999       2.02270770
Si       7.64548923       5.00590009       4.24737185
Si       0.81555250       1.91307672       4.24737185
Si       2.81390373       0.75031039       4.86241045
Si       5.64713800       6.16866641       4.86241045
Si       0.73324385       5.01794273       1.52381295
Si       7.72779788       1.90103408       1.52381295
Si       1.41661714       4.20979879       4.86241045
Si       7.04442459       2.70917801       4.86241045
Si       3.49727701       1.55845433       1.52381295
Si       4.96376472       5.36052248       1.52381295
Si      -0.00000000      -0.00000000       5.76627418
Si      -0.00000000       6.91897680       3.01756499
Si       4.23052086       3.45948840       5.76627418
Si       4.23052086       3.45948840       3.01756499
20
Lattice="8.442467863671482 -2.1103744413439544e-49 -3.549951803417449e-33 1.1465458853705112e-48 6.899311292627064 2.139509857076651e-15 2.0505961839307555e-33 -1.781512691885839e-15 5.66858023463257" Properties=species:S:1:pos:R:3 unique_starting_index=96 config_type=initial n_minim_iter=10 stress="-0.001322178125847149 1.3628585176398447e-16 -1.5839806905322396e-16 1.3628585176398447e-16 -0.0014072585017909538 1.4134420964190774e-16 -1.5839806905322396e-16 1.4134420964190774e-16 -0.005894969313842849" pbc="T T T"
Si       6.98029502       4.17396889       2.08802732
Si       1.46217284       2.72534241       2.08802732
Si       5.04517540       1.56945963       4.29454765
Si       3.39729247       5.32985167       4.29454765
Si       5.68340678       0.72431324       2.08802732
Si       2.75906109       6.17499805       2.08802732
Si       7.61852640       5.01911527       4.29454765
Si       0.82394146       1.88019602       4.29454765
Si       2.83426760       0.75060955       4.93621129
Si       5.60820027       6.14870174       4.93621129
Si       0.74691552       4.99803738       1.50654249
Si       7.69555235       1.90127391       1.50654249
Si       1.38696633       4.20026520       4.93621129
Si       7.05550153       2.69904609       4.93621129
Si       3.47431842       1.54838173       1.50654249
Si       4.96814945       5.35092956       1.50654249
Si      -0.00000000      -0.00000000       5.83701141
Si      -0.00000000       6.89931129       3.03220251
Si       4.22123393       3.44965565       5.83701141
Si       4.22123393       3.44965565       3.03220251
20
Lattice="8.436760163528236 -1.6345363804965078e-49 -3.617804207025024e-33 1.1575711777039843e-48 6.880620578341694 2.1156895704494736e-15 2.029426030427547e-33 -1.8110779110577854e-15 5.723163976729002" Properties=species:S:1:pos:R:3 unique_starting_index=96 config_type=initial n_minim_iter=11 stress="-8.167328589464448e-05 -1.1111236124780068e-17 -2.364317493478983e-16 -1.1111236124780068e-17 0.0016531565551505235 1.5030226948629808e-16 -2.364317493478983e-16 1.5030226948629808e-16 -0.004135838201884108" pbc="T T T"
Si       6.98058580       4.16479586       2.12418856
Si       1.45617436       2.71582472       2.12418856
Si       5.04622768       1.57779281       4.33786263
Si       3.39053248       5.30282777       4.33786263
Si       5.67455444       0.72448557       2.12418856
Si       2.76220572       6.15613501       2.12418856
Si       7.60891257       5.01810310       4.33786263
Si       0.82784760       1.86251748       4.33786263
Si       2.84362005       0.75045453       4.99172222
Si       5.59314011       6.13016604       4.99172222
Si       0.75830057       4.98641150       1.50133520
Si       7.67845960       1.89420908       1.50133520
Si       1.37476003       4.19076482       4.99172222
Si       7.06200013       2.68985576       4.99172222
Si       3.46007952       1.54610121       1.50133520
Si       4.97668065       5.33451937       1.50133520
Si      -0.00000000      -0.00000000       5.89157535
Si      -0.00000000       6.88062058       3.05047668
Si       4.21838008       3.44031029       5.89157535
Si       4.21838008       3.44031029       3.05047668
20
Lattice="8.444371629924623 -1.6445885886152907e-49 -3.680448784495453e-33 1.1744842948779991e-48 6.8774950575958425 2.1960849348505683e-15 1.9999246461385962e-33 -1.7564796540179381e-15 5.741159664199778" Properties=species:S:1:pos:R:3 unique_starting_index=96 config_type=initial n_minim_iter=12 stress="0.004427230148510646 8.740620966250698e-17 -1.748640108665211e-16 8.740620966250698e-17 0.0056812234247474854 1.3254849348456157e-16 -1.748640108665211e-16 1.3254849348456157e-16 0.002208347227019393" pbc="T T T"
Si       6.98761514       4.15835607       2.12346328
Si       1.45675649       2.71913899       2.12346328
Si       5.05121547       1.57298240       4.36084951
Si       3.39315616       5.30451266       4.36084951
Si       5.67894231       0.71960854       2.12346328
Si       2.76542932       6.15788652       2.12346328
Si       7.61534197       5.01172993       4.36084951
Si       0.82902966       1.86576513       4.36084951
Si       2.84173016       0.75092385       5.00964582
Si       5.60264147       6.12657121       5.00964582
Si       0.76912125       4.99333720       1.50343558
Si       7.67525038       1.88415785       1.50343558
Si       1.38045566       4.18967138       5.00964582
Si       7.06391597       2.68782368       5.00964582
Si       3.45306456       1.55458968       1.50343558
Si       4.99130707       5.32290538       1.50343558
Si      -0.00000000      -0.00000000       5.90687124
Si      -0.00000000       6.87749506       3.06019771
Si       4.22218581       3.43874753       5.90687124
Si       4.22218581       3.43874753       3.06019771
20
Lattice="8.436499503625594 -1.7195126008954808e-49 -3.7613805429351115e-33 1.1706050101486673e-48 6.839590225084721 2.2586260423436076e-15 1.9700548041598592e-33 -1.7176183521275044e-15 5.79384869910154" Properties=species:S:1:pos:R:3 unique_starting_index=96 config_type=initial n_minim_iter=13 stress="0.001644674450692896 1.5373511381940852e-16 -7.066724018716626e-17 1.5373511381940852e-16 0.003947402979789454 2.6649928040920265e-17 -7.066724018716626e-17 2.6649928040920265e-17 0.002167780949654775" pbc="T T T"
Si       6.98699101       4.14167663       2.16103621
Si       1.44950849       2.69791359       2.16103621
Si       5.05891140       1.56793639       4.40098407
Si       3.37758810       5.27165384       4.40098407
Si       5.66775825       0.72188152       2.16103621
Si       2.76874126       6.11770871       2.16103621
Si       7.59583785       4.98773150       4.40098407
Si       0.84066165       1.85185872       4.40098407
Si       2.84773360       0.74355435       5.05952855
Si       5.58876590       6.09603587       5.05952855
Si       0.78227855       4.96528160       1.50385012
Si       7.65422096       1.87430862       1.50385012
Si       1.37051615       4.16334946       5.05952855
Si       7.06598335       2.67624076       5.05952855
Si       3.43597120       1.54548649       1.50385012
Si       5.00052830       5.29410374       1.50385012
Si      -0.00000000      -0.00000000       5.95716229
Si      -0.00000000       6.83959023       3.07475680
Si       4.21824975       3.41979511       5.95716229
Si       4.21824975       3.41979511       3.07475680
20
Lattice="8.439830057213518 -1.2309060072433965e-49 -3.821851945508194e-33 1.1521025742067395e-48 6.825865745341137 2.1544753161849297e-15 1.9309852477207022e-33 -1.7896049545237347e-15 5.787687383946451" Properties=species:S:1:pos:R:3 unique_starting_index=96 config_type=initial n_minim_iter=14 stress="-0.001247700562810645 1.502556929359636e-17 -1.5213006081169696e-16 1.502556929359636e-17 -0.001084554985991531 -1.2075412390910564e-16 -1.5213006081169696e-16 -1.2075412390910564e-16 0.0006195437298030044" pbc="T T T"
Si       6.99301671       4.13174344       2.15412331
Si       1.44681334       2.69412230       2.15412331
Si       5.06053411       1.55926398       4.39763378
Si       3.37929594       5.26660176       4.39763378
Si       5.66672837       0.71881057       2.15412331
Si       2.77310168       6.10705518       2.15412331
Si       7.59921097       4.97219685       4.39763378
Si       0.84061909       1.85366889       4.39763378
Si       2.84419951       0.74152664       5.05320014
Si       5.59563055       6.08433910       5.05320014
Si       0.78451071       4.95749261       1.50584986
Si       7.65531935       1.86837314       1.50584986
Si       1.37571552       4.15445952       5.05320014
Si       7.06411454       2.67140623       5.05320014
Si       3.43540432       1.54455973       1.50584986
Si       5.00442574       5.28130601       1.50584986
Si      -0.00000000      -0.00000000       5.94851870
Si      -0.00000000       6.82586575       3.07506363
Si       4.21991503       3.41293287       5.94851870
Si       4.21991503       3.41293287       3.07506363
20
Lattice="8.450745034478796 -1.1212019324601934e-49 -3.90830248357555e-33 1.136526856293757e-48 6.82055061313671 2.144229326447834e-15 1.869859000439405e-33 -1.7886278079636463e-15 5.7636796452131565" Properties=species:S:1:pos:R:3 unique_starting_index=96 config_type=initial n_minim_iter=15 stress="-0.0015148047848295072 4.417599599440313e-17 -8.02267273086831e-17 4.417599599440313e-17 -0.005969352211661903 1.4351952441766147e-16 -8.02267273086831e-17 1.4351952441766147e-16 -0.0020241728966424216" pbc="T T T"
Si       7.01524332       4.12470586       2.13525717
Si       1.43550172       2.69584475       2.13525717
Si       5.06356977       1.54457117       4.37927648
Si       3.38717527       5.27597945       4.37927648
Si       5.66087423       0.71443056       2.13525717
Si       2.78987080       6.10612006       2.13525717
Si       7.61254778       4.95484647       4.37927648
Si       0.83819725       1.86570414       4.37927648
Si       2.83503112       0.74132370       5.03067217
Si       5.61571391       6.07922692       5.03067217
Si       0.78820982       4.95913610       1.50839712
Si       7.66253522       1.86141452       1.50839712
Si       1.39034139       4.15159900       5.03067217
Si       7.06040364       2.66895161       5.03067217
Si       3.43716270       1.54886079       1.50839712
Si       5.01358233       5.27168982       1.50839712
Si      -0.00000000      -0.00000000       5.91700978
Si      -0.00000000       6.82055061       3.07478126
Si       4.22537252       3.41027531       5.91700978
Si       4.22537252       3.41027531       3.07478126
20
Lattice="8.434248225002142 -4.333703996066388e-50 -4.020227334915557e-33 1.1327996983272895e-48 6.823779928234123 2.075007221833976e-15 1.8162741252957985e-33 -1.854084635853178e-15 5.8065821842608765" Properties=species:S:1:pos:R:3 unique_starting_index=96 config_type=initial n_minim_iter=16 stress="-0.0003059914321303974 -2.1054078331556966e-16 -1.536337215860357e-16 -2.1054078331556966e-16 0.00024583906853571045 1.5835557464450425e-16 -1.536337215860357e-16 1.5835557464450425e-16 0.0007791096282595594" pbc="T T T"
Si       7.02916445       4.12852494       2.16251856
Si       1.40508377       2.69525498       2.16251856
Si       5.05484103       1.54118021       4.40846747
Si       3.37940720       5.28259972       4.40846747
Si       5.62220789       0.71663498       2.16251856
Si       2.81204034       6.10714495       2.16251856
Si       7.59653131       4.95307018       4.40846747
Si       0.83771691       1.87070975       4.40846747
Si       2.82542738       0.74585908       5.07624984
Si       5.60882084       6.07792085       5.07624984
Si       0.80637326       4.97469456       1.50755769
Si       7.62787496       1.84908537       1.50755769
Si       1.39169673       4.15774905       5.07624984
Si       7.04255150       2.66603088       5.07624984
Si       3.41075085       1.56280460       1.50755769
Si       5.02349738       5.26097533       1.50755769
Si      -0.00000000      -0.00000000       5.94826361
Si      -0.00000000       6.82377993       3.10240918
Si       4.21712411       3.41188996       5.94826361
Si       4.21712411       3.41188996       3.10240918
20
Lattice="8.434355807518019 -1.0738224245659292e-49 -4.0968456531704746e-33 1.125566060990033e-48 6.851498416851918 2.2200258349195223e-15 1.7541343085375277e-33 -1.7440533063721245e-15 5.772950910433259" Properties=species:S:1:pos:R:3 unique_starting_index=96 config_type=initial n_minim_iter=17 stress="-0.000241608461622491 -2.267779969396207e-16 -1.8735981783554996e-16 -2.267779969396207e-16 0.0015122542270351058 3.2916688001132124e-16 -1.8735981783554996e-16 3.2916688001132124e-16 0.0006151993516705279" pbc="T T T"
Si       7.03091786       4.14261501       2.13696991
Si       1.40343795       2.70888340       2.13696991
Si       5.04582693       1.53641398       4.38158151
Si       3.38852888       5.31508443       4.38158151
Si       5.62061585       0.71686580       2.13696991
Si       2.81373995       6.13463261       2.13696991
Si       7.60570678       4.96216319       4.38158151
Si       0.82864902       1.88933523       4.38158151
Si       2.81662635       0.75136887       5.04488097
Si       5.61772946       6.10012955       5.04488097
Si       0.80414362       5.00426711       1.50937412
Si       7.63021219       1.84723130       1.50937412
Si       1.40055156       4.17711808       5.04488097
Si       7.03380425       2.67438034       5.04488097
Si       3.41303428       1.57851791       1.50937412
Si       5.02132152       5.27298051       1.50937412
Si      -0.00000000      -0.00000000       5.91229601
Si      -0.00000000       6.85149842       3.09754699
Si       4.21717790       3.42574921       5.91229601
Si       4.21717790       3.42574921       3.09754699
20
Lattice="8.44517123254151 -5.515482612630527e-50 -4.1923886863346814e-33 1.1094823132635424e-48 6.8356845051648385 2.1402306245949124e-15 1.7012447807272282e-33 -1.8018720667106293e-15 5.7813202669458805" Properties=species:S:1:pos:R:3 unique_starting_index=96 config_type=initial n_minim_iter=18 stress="0.0009499813709006329 -3.970641138602614e-16 -2.350590413898051e-16 -3.970641138602614e-16 0.00036089808063500064 5.325221449377956e-17 -2.350590413898051e-16 5.325221449377956e-17 -0.000626071648174169" pbc="T T T"
Si       7.04207737       4.13600991       2.14325948
Si       1.40309387       2.69967460       2.14325948
Si       5.05093059       1.52981300       4.38346149
Si       3.39424064       5.30587151       4.38346149
Si       5.62567948       0.71816766       2.14325948
Si       2.81949175       6.11751685       2.14325948
Si       7.61682626       4.94765525       4.38346149
Si       0.82834497       1.88802925       4.38346149
Si       2.82094942       0.75233202       5.05284222
Si       5.62422181       6.08335249       5.05284222
Si       0.80769652       5.00071289       1.51130889
Si       7.63747472       1.83497161       1.51130889
Si       1.40163620       4.17017427       5.05284222
Si       7.04353504       2.66551023       5.05284222
Si       3.41488910       1.58287064       1.51130889
Si       5.03028213       5.25281386       1.51130889
Si      -0.00000000      -0.00000000       5.91831574
Si      -0.00000000       6.83568451       3.10636288
Si       4.22258562       3.41784225       5.91831574
Si       4.22258562       3.41784225       3.10636288
20
Lattice="8.443121434523643 -1.0322187139860806e-51 -4.283939550432572e-33 1.0947228141382377e-48 6.82731092729729 2.0595791129320457e-15 1.648655473739218e-33 -1.8620107775049792e-15 5.7902693865670924" Properties=species:S:1:pos:R:3 unique_starting_index=96 config_type=initial n_minim_iter=19 stress="-0.0013592689238758253 -2.0889035443796793e-16 -2.976266198620661e-16 -2.0889035443796793e-16 -0.001077115019911197 7.687972546203236e-17 -2.976266198620661e-16 7.687972546203236e-17 -0.00022705657087525836" pbc="T T T"
Si       7.04513124       4.12963807       2.14534852
Si       1.39799020       2.69767286       2.14534852
Si       5.05088221       1.52440809       4.39084653
Si       3.39223922       5.30290284       4.39084653
Si       5.61955091       0.71598261       2.14534852
Si       2.82357052       6.11132832       2.14534852
Si       7.61379994       4.93806356       4.39084653
Si       0.82932149       1.88924737       4.39084653
Si       2.81739113       0.75412884       5.06169794
Si       5.62573030       6.07318209       5.06169794
Si       0.81022238       4.99979283       1.51375689
Si       7.63289906       1.82751810       1.51375689
Si       1.40416958       4.16778430       5.06169794
Si       7.03895185       2.65952662       5.06169794
Si       3.41133834       1.58613737       1.51375689
Si       5.03178309       5.24117356       1.51375689
Si      -0.00000000      -0.00000000       5.92207954
Si      -0.00000000       6.82731093       3.11554080
Si       4.22156072       3.41365546       5.92207954
Si       4.22156072       3.41365546       3.11554080
20
Lattice="8.450267254361222 3.90518745623407e-51 -4.3867352568214335e-33 1.0813393704733194e-48 6.809167126878716 2.0803004474029246e-15 1.5966624253013835e-33 -1.849504286573757e-15 5.811328366003091" Properties=species:S:1:pos:R:3 unique_starting_index=96 config_type=initial n_minim_iter=20 stress="0.0006615811160442578 -3.3032306036597437e-16 -1.8627249516305537e-16 -3.3032306036597437e-16 -2.3417797227364537e-05 1.828781869821961e-16 -1.8627249516305537e-16 1.828781869821961e-16 0.0028097740340689483" pbc="T T T"
Si       7.04270758       4.11838219       2.15593961
Si       1.40755968       2.69078494       2.15593961
Si       5.06521299       1.51924819       4.40622740
Si       3.38505427       5.28991894       4.40622740
Si       5.63269330       0.71379862       2.15593961
Si       2.81757395       6.09536850       2.15593961
Si       7.61018789       4.92383175       4.40622740
Si       0.84007936       1.88533537       4.40622740
Si       2.82703463       0.75949714       5.08095633
Si       5.62323262       6.04966998       5.08095633
Si       0.80142154       4.98657620       1.52002508
Si       7.64884572       1.82259093       1.52002508
Si       1.39809900       4.16408071       5.08095633
Si       7.05216826       2.64508642       5.08095633
Si       3.42371209       1.58199263       1.52002508
Si       5.02655516       5.22717449       1.52002508
Si      -0.00000000      -0.00000000       5.93443430
Si      -0.00000000       6.80916713       3.12843154
Si       4.22513363       3.40458356       5.93443430
Si       4.22513363       3.40458356       3.12843154
20
Lattice="8.471346869803256 8.360204731625863e-50 -4.464602427374497e-33 1.0943344148339321e-48 6.809163661034896 2.0084461515027812e-15 1.54296716306302e-33 -1.8964880123734854e-15 5.791668617767742" Properties=species:S:1:pos:R:3 unique_starting_index=96 config_type=initial n_minim_iter=21 stress="0.0029017167300743013 -1.3517234527782304e-16 -1.5570472523644349e-16 -1.3517234527782304e-16 0.0036027049487175073 1.5198139928643912e-16 -1.5570472523644349e-16 1.5198139928643912e-16 0.0036578896306339133" pbc="T T T"
Si       7.05353051       4.10687945       2.12964453
Si       1.41781636       2.70228421       2.12964453
Si       5.09081492       1.48088258       4.38330930
Si       3.38053195       5.32828109       4.38330930
Si       5.65348979       0.70229762       2.12964453
Si       2.81785708       6.10686604       2.12964453
Si       7.61620538       4.88546441       4.38330930
Si       0.85514149       1.92369926       4.38330930
Si       2.83927779       0.79575765       5.06907709
Si       5.63206908       6.01340601       5.06907709
Si       0.77356761       5.01545755       1.53665005
Si       7.69777926       1.79370611       1.53665005
Si       1.39639564       4.20033948       5.06907709
Si       7.07495123       2.60882418       5.06907709
Si       3.46210582       1.61087572       1.53665005
Si       5.00924105       5.19828794       1.53665005
Si      -0.00000000      -0.00000000       5.86632162
Si      -0.00000000       6.80916366       3.16575743
Si       4.23567343       3.40458183       5.86632162
Si       4.23567343       3.40458183       3.16575743
