10
Lattice="7.343261470934756 0.18070882450664014 -1.1907460387867896 -1.142668059099672 3.8014221792165293 0.08039198514418598 -5.17496186904289 -1.8081000913799306 8.07294041535929" Properties=species:S:1:pos:R:3 unique_starting_index=68 config_type=initial n_minim_iter=1 energy=-1629.5334732529936 free_energy=-1629.5334732529936 pbc="T T T"
Si      -0.91192764       0.56803133       2.47131930
Si      -4.21936569       1.97139810       6.58789627
Si       4.39269874       3.35046591      -0.15677396
Si       1.58892113       0.65856989       4.37325737
Si      -1.89476460       2.13462670       6.16181156
Si      -0.66155289       0.36222769       4.82717349
Si       2.30912796       0.12924516       0.80384131
Si       1.12454548       1.70550648       2.11815463
Si       4.31631916       1.19777244       0.31332176
Si       1.69036147       2.73224206       3.92774957
10
Lattice="7.343674337228464 0.18040819054923926 -1.1918842037549218 -1.1426476675337698 3.7995299426341407 0.08166337447794614 -5.1763723025813775 -1.8049693712931467 8.073771739139245" Properties=species:S:1:pos:R:3 unique_starting_index=68 config_type=initial n_minim_iter=2 stress="-0.0009871282296233434 0.00017666986913177302 0.000598509895431166 0.00017666986913177302 -0.002264682058905638 -0.0006883274885593395 0.000598509895431166 -0.0006883274885593395 -0.0009960216155342051" pbc="T T T"
Si      -0.91227897       0.56840189       2.47180577
Si      -4.22048356       1.97226984       6.58945648
Si       4.39277234       3.34877503      -0.15650780
Si       1.58833718       0.65979641       4.37357312
Si      -1.89570722       2.13536608       6.16315980
Si      -0.66227489       0.36346558       4.82776195
Si       2.30912384       0.12947221       0.80356052
Si       1.12426862       1.70530045       2.11864496
Si       4.31650273       1.19729149       0.31300142
Si       1.68987949       2.73174516       3.92861892
10
Lattice="7.346073085815709 0.1797284431696277 -1.1941909011730725 -1.1431174333617635 3.80040485992557 0.08352683825617505 -5.179980872901455 -1.8019418007445547 8.077008907417841" Properties=species:S:1:pos:R:3 unique_starting_index=68 config_type=initial n_minim_iter=3 stress="0.0006597678571184747 -0.0005745598705076451 0.0003463914832592907 -0.0005745598705076451 -0.00013635177152326414 0.000667331020477421 0.0003463914832592907 0.000667331020477421 9.499855092563192e-05" pbc="T T T"
Si      -0.91315064       0.56943411       2.47307336
Si      -4.22353179       1.97553177       6.59329830
Si       4.39368939       3.34908788      -0.15647899
Si       1.58757127       0.66175214       4.37501035
Si      -1.89798882       2.13850137       6.16651020
Si      -0.66374098       0.36560465       4.82970866
Si       2.30964953       0.12979507       0.80317116
Si       1.12390646       1.70650247       2.11973966
Si       4.31770108       1.19748654       0.31235066
Si       1.68916886       2.73369206       3.93046261
10
Lattice="7.347279979151581 0.1818674495857832 -1.2001284234424614 -1.1419347974913328 3.8009900039430997 0.08563919997140379 -5.186738103641668 -1.8015262614444778 8.084148471507982" Properties=species:S:1:pos:R:3 unique_starting_index=68 config_type=initial n_minim_iter=4 stress="-0.0004855427475620074 0.0013466120580692942 -0.00038015866575711986 0.0013466120580692942 0.00047420572125234914 0.00044681725952923677 -0.00038015866575711986 0.00044681725952923677 -0.00017093066263729716" pbc="T T T"
Si      -0.91471223       0.56947901       2.47490601
Si      -4.22770567       1.97689218       6.59971412
Si       4.39400374       3.35138281      -0.15851802
Si       1.58461983       0.66379688       4.37700940
Si      -1.90188503       2.14088869       6.17165801
Si      -0.66703192       0.36741559       4.83298659
Si       2.30949440       0.13104943       0.80167082
Si       1.12282878       1.70810103       2.12067850
Si       4.31873528       1.19868223       0.30936937
Si       1.68701231       2.73616262       3.93165699
10
Lattice="7.352704833670543 0.17562707927423737 -1.2091894518497561 -1.1458009596783247 3.8012705999033947 0.08757915225069679 -5.196810544147553 -1.7956072071929527 8.098462526797698" Properties=species:S:1:pos:R:3 unique_starting_index=68 config_type=initial n_minim_iter=5 stress="0.0011529068081849562 -0.00012269090864901517 -0.0005796586184810382 -0.00012269090864901517 0.0001276588543955925 -0.000672054874264874 -0.0005796586184810382 -0.000672054874264874 0.0008590307012378767" pbc="T T T"
Si      -0.91814571       0.56861883       2.47787559
Si      -4.23757957       1.98131223       6.61112224
Si       4.39176172       3.34675367      -0.16194004
Si       1.58043351       0.66314227       4.38262386
Si      -1.91130036       2.14453081       6.18105871
Si      -0.67235357       0.36980437       4.84017689
Si       2.31075032       0.12982191       0.79956511
Si       1.11953412       1.70757315       2.12277169
Si       4.32129028       1.19389249       0.30464339
Si       1.68027744       2.73479942       3.93327655
10
Lattice="7.33545049360387 0.16566361682628197 -1.2097575638002511 -1.1471280134806674 3.8031404133381606 0.09496780100405883 -5.184281015054231 -1.775108315436933 8.092577798857379" Properties=species:S:1:pos:R:3 unique_starting_index=68 config_type=initial n_minim_iter=6 stress="-0.003021969507334242 -0.001380002923624489 -0.0007280950490685088 -0.001380002923624489 0.001073020110215015 0.0006053364402254937 -0.0007280950490685088 0.0006053364402254937 0.0005450433010228405" pbc="T T T"
Si      -0.91589597       0.57005728       2.47700925
Si      -4.22826798       1.99934120       6.61003506
Si       4.37317927       3.33862356      -0.15548820
Si       1.57543040       0.66901212       4.38690971
Si      -1.91050789       2.16191967       6.18274976
Si      -0.67107514       0.38278325       4.84131467
Si       2.30694293       0.13048010       0.79767980
Si       1.11405068       1.71122571       2.12580346
Si       4.31139336       1.18925946       0.30455083
Si       1.66952772       2.74094852       3.93369988
10
Lattice="7.341415946462684 0.1690888167873414 -1.204773621602493 -1.1460262548334461 3.802009007540044 0.09604383157926694 -5.185381574755001 -1.7739196805942028 8.083308086055704" Properties=species:S:1:pos:R:3 unique_starting_index=68 config_type=initial n_minim_iter=7 stress="-0.0006408284492686067 0.00040922508431749666 0.0016858838429780708 0.00040922508431749666 4.11064616307614e-05 0.0007707334548090342 0.0016858838429780708 0.0007707334548090342 0.0021029649356376786" pbc="T T T"
Si      -0.91444428       0.56834610       2.47461562
Si      -4.22597351       2.00033071       6.60258346
Si       4.37675391       3.33850227      -0.15094956
Si       1.57997517       0.67167840       4.38742858
Si      -1.90773360       2.16505668       6.17836798
Si      -0.66834529       0.38633838       4.83895822
Si       2.31039298       0.13289199       0.79786591
Si       1.11693561       1.71275274       2.12602995
Si       4.31654782       1.19135448       0.30668839
Si       1.67308621       2.74309404       3.93223482
10
Lattice="7.349190435899895 0.1716076881076915 -1.2045325280246624 -1.1458438718525545 3.801955516669608 0.0965633421084953 -5.193333076903832 -1.7751492903713568 8.070063081307373" Properties=species:S:1:pos:R:3 unique_starting_index=68 config_type=initial n_minim_iter=8 stress="0.00047505850727175937 -0.00016585993859322788 -0.00032464313210605266 -0.00016585993859322788 -8.202224429637266e-05 0.0003092128350210842 -0.00032464313210605266 0.0003092128350210842 -0.0013179153358737962" pbc="T T T"
Si      -0.91542528       0.56556680       2.46969349
Si      -4.23022394       2.00032019       6.59014017
Si       4.38087203       3.33819384      -0.15084429
Si       1.58115530       0.67281734       4.38163601
Si      -1.91060661       2.16683763       6.16798430
Si      -0.66972225       0.38855012       4.83174437
Si       2.31343302       0.13465983       0.79522682
Si       1.11791329       1.71357523       2.12223629
Si       4.32137366       1.19311488       0.30471526
Si       1.67336069       2.74384949       3.92461714
10
Lattice="7.3508870946141505 0.17979213986435846 -1.2002330614062526 -1.1424250413839774 3.8035439512271294 0.09309738796089469 -5.191116424089086 -1.7873055470675883 8.072540379192287" Properties=species:S:1:pos:R:3 unique_starting_index=68 config_type=initial n_minim_iter=9 stress="0.001213744885702791 0.00012077613591942429 -0.0001370888722983005 0.00012077613591942429 -0.0002749387710373264 1.2019096647777518e-06 -0.0001370888722983005 1.2019096647777518e-06 0.0004521018615390917" pbc="T T T"
Si      -0.91314027       0.55647356       2.46746160
Si      -4.22365747       1.99485399       6.58438992
Si       4.38398640       3.34094127      -0.14821448
Si       1.58711271       0.67341600       4.38959843
Si      -1.90528134       2.16587459       6.16822027
Si      -0.66547437       0.38959694       4.83653463
Si       2.31631946       0.13856683       0.79614301
Si       1.12065892       1.71293151       2.12100589
Si       4.32357667       1.19769095       0.30708781
Si       1.67702101       2.74306379       3.92847101
10
Lattice="7.342813206271445 0.17608577787084834 -1.1945685763889768 -1.1433952602198154 3.810171037546942 0.09182196532803383 -5.180473411424857 -1.7883576753024715 8.058894907117876" Properties=species:S:1:pos:R:3 unique_starting_index=68 config_type=initial n_minim_iter=10 stress="-0.0002998055729979493 0.00011680331088332328 0.00048248520112245365 0.00011680331088332328 0.000667938141402387 7.963155199436427e-06 0.00048248520112245365 7.963155199436427e-06 -0.00025002620046913335" pbc="T T T"
Si      -0.90939860       0.55173487       2.46287130
Si      -4.21419235       2.00135187       6.56954900
Si       4.37386944       3.34109303      -0.14846165
Si       1.58920695       0.67530634       4.38915726
Si      -1.89977871       2.17324387       6.16046315
Si      -0.66180528       0.39580827       4.83172082
Si       2.31543118       0.13866801       0.79422764
Si       1.11872382       1.71330194       2.11688623
Si       4.31883377       1.19332519       0.30921508
Si       1.67152701       2.74412784       3.92430391
10
Lattice="7.3437181615925144 0.17606859134008446 -1.199575702141013 -1.1434354429476696 3.8068676469213076 0.09233416981547564 -5.185663530610099 -1.787331041161537 8.064897347213382" Properties=species:S:1:pos:R:3 unique_starting_index=68 config_type=initial n_minim_iter=11 stress="-0.0006307896871367181 0.00017058878666948 2.427355428445303e-05 0.00017058878666948 0.00017875514664821774 0.0001232723900206658 2.427355428445303e-05 0.0001232723900206658 1.0657992162136001e-05" pbc="T T T"
Si      -0.91018598       0.54830348       2.46386570
Si      -4.21728251       2.00057346       6.57297946
Si       4.37323881       3.33595485      -0.15306093
Si       1.58740614       0.67380283       4.39184213
Si      -1.90280948       2.17331341       6.16432589
Si      -0.66464147       0.39829554       4.83476609
Si       2.31506658       0.13839087       0.79171105
Si       1.11676281       1.71100034       2.11579877
Si       4.31879306       1.19109536       0.30733713
Si       1.66665711       2.74258273       3.92492126
10
Lattice="7.3500255192718065 0.17703249812700395 -1.1997971238270537 -1.144210635858021 3.803815022285826 0.09008072507959376 -5.1905650290161 -1.7910738510985527 8.064478581456727" Properties=species:S:1:pos:R:3 unique_starting_index=68 config_type=initial n_minim_iter=12 stress="0.0003754365509806449 -0.0001844157288391876 -0.000433538215572458 -0.0001844157288391876 -0.0007655736804176207 -0.0003179114798009181 -0.000433538215572458 -0.0003179114798009181 -3.341505478518906e-06" pbc="T T T"
Si      -0.91024190       0.54067083       2.46224126
Si      -4.21998231       1.99948963       6.56820317
Si       4.37849418       3.32979781      -0.15837263
Si       1.58935198       0.67036352       4.39368659
Si      -1.90331095       2.17409791       6.16214403
Si      -0.66518851       0.40207053       4.83540216
Si       2.31566144       0.13553726       0.78799728
Si       1.11674846       1.70693361       2.11270249
Si       4.32315454       1.18572996       0.30958192
Si       1.66406425       2.73859228       3.92466546
10
Lattice="7.347829582603938 0.17510273019444833 -1.1939691368508272 -1.1448421196154501 3.8064465168463992 0.09024574467556466 -5.183516085511336 -1.7888236869309175 8.056304517793654" Properties=species:S:1:pos:R:3 unique_starting_index=68 config_type=initial n_minim_iter=13 stress="0.00023689503109011926 -0.00011195490141924767 0.00011655821075782713 -0.00011195490141924767 0.00036049352409972063 0.00013579966442340047 0.00011655821075782713 0.00013579966442340047 0.00016358440333119183" pbc="T T T"
Si      -0.90828705       0.53985493       2.46064468
Si      -4.21545627       2.00672853       6.56171306
Si       4.37850733       3.32927136      -0.15580216
Si       1.59030226       0.67213077       4.39386531
Si      -1.89911138       2.18217338       6.15771403
Si      -0.66163499       0.40701250       4.83336772
Si       2.31396367       0.13172505       0.78708000
Si       1.11793266       1.70816255       2.11427682
Si       4.32447577       1.18191665       0.31491369
Si       1.66538599       2.73998118       3.92415583
10
Lattice="7.348456741873009 0.1741753585253688 -1.1938506408231004 -1.145256660149933 3.8039406265513835 0.0908634447698766 -5.1837873083254875 -1.785822339124483 8.055601465381644" Properties=species:S:1:pos:R:3 unique_starting_index=68 config_type=initial n_minim_iter=14 stress="-0.0005130391164833549 0.00012403358436798403 -7.265097165695118e-05 0.00012403358436798403 -0.0005035089588487778 -8.714162757430093e-05 -7.265097165695118e-05 -8.714162757430093e-05 -0.0003655899454852386" pbc="T T T"
Si      -0.90803046       0.53823162       2.46032996
Si      -4.21637370       2.00837133       6.56093857
Si       4.37930364       3.32531828      -0.15610754
Si       1.58968153       0.67226649       4.39489112
Si      -1.89934065       2.18447380       6.15890030
Si      -0.66212818       0.40955237       4.83353326
Si       2.31343812       0.12943148       0.78627703
Si       1.11823075       1.70607885       2.11489739
Si       4.32572607       1.17953768       0.31574395
Si       1.66516708       2.74005331       3.92351178
10
Lattice="7.348816255706336 0.17783557217333187 -1.194547907751061 -1.1435985439665133 3.802734143831302 0.08961280102471723 -5.184708974392791 -1.7905538754246726 8.061047153948369" Properties=species:S:1:pos:R:3 unique_starting_index=68 config_type=initial n_minim_iter=15 stress="-2.2836447675676636e-05 0.0002837243706828148 -0.00019293422298460552 0.0002837243706828148 -3.1604780813229615e-05 -0.00020745107019055415 -0.00019293422298460552 -0.00020745107019055415 0.00016347311612895587" pbc="T T T"
Si      -0.90735988       0.53533493       2.46116816
Si      -4.21667940       2.00466787       6.56331652
Si       4.38206630       3.32556148      -0.15774363
Si       1.58918499       0.67384565       4.39762737
Si      -1.89901912       2.18296173       6.16518709
Si      -0.66334966       0.40876357       4.83601041
Si       2.31335724       0.12778975       0.78711551
Si       1.12048468       1.70274321       2.11626875
Si       4.32669766       1.18114917       0.31539844
Si       1.66760019       2.74072958       3.92270128
10
Lattice="7.348967061350576 0.17653786310549202 -1.1921168928193178 -1.1441888556935893 3.8031349316344025 0.09015669470110854 -5.182537562924852 -1.788048019205358 8.057021660299515" Properties=species:S:1:pos:R:3 unique_starting_index=68 config_type=initial n_minim_iter=16 stress="0.00015306644990770055 -5.407044843031702e-06 5.690332587305712e-07 -5.407044843031702e-06 1.9974315280504885e-05 3.2920361732055675e-06 5.690332587305712e-07 3.2920361732055675e-06 -2.1624379797953634e-05" pbc="T T T"
Si      -0.90660630       0.53551977       2.46017607
Si      -4.21585626       2.00735896       6.56056974
Si       4.38208307       3.32490692      -0.15552216
Si       1.59019409       0.67547985       4.39692841
Si      -1.89807982       2.18566009       6.16439203
Si      -0.66259116       0.41039832       4.83461407
Si       2.31394135       0.12686366       0.78766060
Si       1.12134076       1.70202577       2.11678820
Si       4.32709200       1.18013973       0.31661957
Si       1.66879834       2.74231216       3.92212461
10
Lattice="7.347832604034703 0.1747975228920266 -1.1910095608583302 -1.1447702885405322 3.8036072148743427 0.09103527957579328 -5.180380663409401 -1.7849393342331152 8.055714527102785" Properties=species:S:1:pos:R:3 unique_starting_index=68 config_type=initial n_minim_iter=17 stress="-1.6847850713012347e-05 -0.00029054947893096913 0.00016226658658074843 -0.00029054947893096913 4.247363041980107e-05 0.00013351921790651707 0.00016226658658074843 0.00013351921790651707 -2.5468174991844448e-05" pbc="T T T"
Si      -0.90572110       0.53575819       2.46009062
Si      -4.21588536       2.01136547       6.56030811
Si       4.38139159       3.32344840      -0.15346452
Si       1.59033647       0.67818973       4.39589983
Si      -1.89854764       2.18961788       6.16616904
Si      -0.66304747       0.41253132       4.83448305
Si       2.31487941       0.12502737       0.78821785
Si       1.12218069       1.69976048       2.11874762
Si       4.32635905       1.17785996       0.31710599
Si       1.66899849       2.74511267       3.92167011
10
Lattice="7.3482477004808695 0.1768074860356549 -1.1932196298172686 -1.1437618611978826 3.8030470278542277 0.09129997558244671 -5.1832348583042664 -1.7863841925753559 8.057733328518898" Properties=species:S:1:pos:R:3 unique_starting_index=68 config_type=initial n_minim_iter=18 stress="1.800514590520904e-05 0.00011315711244324407 1.2823283760972345e-05 0.00011315711244324407 1.2351576728530506e-07 2.2558060215823718e-05 1.2823283760972345e-05 2.2558060215823718e-05 -1.0386812060227234e-05" pbc="T T T"
Si      -0.90619262       0.53478596       2.46035639
Si      -4.21762374       2.01132450       6.56202128
Si       4.38236408       3.32297374      -0.15451713
Si       1.58983441       0.67925231       4.39412606
Si      -1.90030314       2.18992253       6.16750254
Si      -0.66449246       0.41327260       4.83523306
Si       2.31613339       0.12512269       0.78751352
Si       1.12244525       1.69825059       2.11935662
Si       4.32615251       1.17778074       0.31578871
Si       1.66753725       2.74652778       3.92117973
10
Lattice="7.347725625195403 0.17515145336197505 -1.1939330450898251 -1.1446894170759532 3.803333546849007 0.09045728088007436 -5.182685943367185 -1.7869532579203777 8.061085308800026" Properties=species:S:1:pos:R:3 unique_starting_index=68 config_type=initial n_minim_iter=19 stress="-4.876361755750539e-05 -0.00013478401092773055 -0.00019683101319661807 -0.00013478401092773055 4.4134426146754326e-05 -0.00012108608524985839 -0.00019683101319661807 -0.00012108608524985839 9.259297153270874e-05" pbc="T T T"
Si      -0.90697050       0.53469276       2.46092840
Si      -4.21934183       2.01159472       6.56400511
Si       4.38047516       3.32107203      -0.15539367
Si       1.58920278       0.67833350       4.39359048
Si      -1.90067448       2.18885589       6.16973278
Si      -0.66391029       0.41278598       4.83682373
Si       2.31673534       0.12341852       0.78818574
Si       1.12238987       1.69678195       2.12061045
Si       4.32584974       1.17624633       0.31517853
Si       1.66649332       2.74586521       3.92169422
10
Lattice="7.347416784573502 0.1752258649620873 -1.1927125191211283 -1.1445927260305175 3.8035474721839786 0.09046970426612774 -5.181440013883819 -1.7867478996153427 8.059295983332124" Properties=species:S:1:pos:R:3 unique_starting_index=68 config_type=initial n_minim_iter=20 stress="-2.5448438233412515e-05 -5.649422046551775e-05 -6.919986283879455e-05 -5.649422046551775e-05 -3.319244981248254e-05 -5.273835183798939e-05 -6.919986283879455e-05 -5.273835183798939e-05 1.0719901593514024e-05" pbc="T T T"
Si      -0.90690996       0.53452118       2.46024026
Si      -4.21864968       2.01235359       6.56265304
Si       4.38008872       3.32079498      -0.15440947
Si       1.58976205       0.67901383       4.39270916
Si      -1.89954151       2.18944059       6.16926600
Si      -0.66273694       0.41353660       4.83631570
Si       2.31719154       0.12303581       0.78865948
Si       1.12292766       1.69654753       2.12086608
Si       4.32597072       1.17632312       0.31570911
Si       1.66683790       2.74666099       3.92153647
