12
Lattice="8.921992160054723 -1.0203706006071644 -0.06005047987131808 2.325698187086313 6.842094443824707 -0.40673244892122523 4.726995846734763 -1.9951527918273984 4.227471696744106" Properties=species:S:1:pos:R:3 unique_starting_index=78 config_type=initial n_minim_iter=1 energy=-1960.195175148463 free_energy=-1960.195175148463 pbc="T T T"
Si       5.41106557       1.71609041       1.26941102
Si       8.84644413       1.48893701       1.79215491
Si      12.31882245       3.25205559       2.78934849
Si       7.12431722       0.47057434       1.19074027
Si       5.17114903       3.10283108       2.86503010
Si       8.87350125       4.95329714       3.79139523
Si       8.94391792       0.21180563       0.08113886
Si       8.77458574       2.82572889       3.45436212
Si       7.13138820      -0.67384088      -0.60353605
Si      10.49859563       0.95979054      -1.18185426
Si       6.97235597       1.96956791       2.70214296
Si       7.00938242       3.99380455       3.44762913
12
Lattice="8.924515764860576 -1.021607537143593 -0.06080618065885646 2.3254123345295596 6.841834639842569 -0.4067083437950314 4.728205136324244 -1.995613813138889 4.228428253622332" Properties=species:S:1:pos:R:3 unique_starting_index=78 config_type=initial n_minim_iter=2 stress="0.003356221030559585 -0.0007588889621381527 -0.0004349636635878071 -0.0007588889621381527 0.0022553425195367643 0.0007955733825392742 -0.0004349636635878071 0.0007955733825392742 0.0016816176150048637" pbc="T T T"
Si       5.41228878       1.71543566       1.26954234
Si       8.84839888       1.48809681       1.79219359
Si      12.32160000       3.25053513       2.78942285
Si       7.12585936       0.46948283       1.19048856
Si       5.17221036       3.10221949       2.86565453
Si       8.87456857       4.95221945       3.79206413
Si       8.94621308       0.21051838       0.08052695
Si       8.77651975       2.82491675       3.45505021
Si       7.13329578      -0.67482024      -0.60412145
Si      10.50145581       0.95838091      -1.18295433
Si       6.97360256       1.96867740       2.70264972
Si       7.01041670       3.99303217       3.44844204
12
Lattice="8.923382141854189 -1.022248144408312 -0.06135434167148876 2.3242795225127817 6.838631922921648 -0.4074140207211427 4.727499396734962 -1.9955862537658888 4.22964611532791" Properties=species:S:1:pos:R:3 unique_starting_index=78 config_type=initial n_minim_iter=3 stress="-0.00020124809551566846 -0.0009452274826378648 -0.0011539556438230605 -0.0009452274826378648 -0.002420604085194324 -0.0002001999319703797 -0.0011539556438230605 -0.0002001999319703797 0.0013553563568290108" pbc="T T T"
Si       5.41159294       1.71394713       1.26962250
Si       8.84663531       1.48695778       1.79222398
Si      12.31971657       3.24742046       2.78914322
Si       7.12416676       0.46791242       1.19007573
Si       5.17173662       3.09989119       2.86582018
Si       8.87158583       4.94853669       3.79200149
Si       8.94478657       0.20918998       0.08007656
Si       8.77527677       2.82288412       3.45557398
Si       7.13210439      -0.67529199      -0.60421954
Si      10.50016339       0.95692583      -1.18395064
Si       6.97192025       1.96660402       2.70302425
Si       7.00864233       3.99016786       3.44886853
12
Lattice="8.922957533868361 -1.0208815973217629 -0.05815455775307043 2.32550398825097 6.842357920345315 -0.4063865979375784 4.72850770227209 -1.99546080394675 4.230889789976319" Properties=species:S:1:pos:R:3 unique_starting_index=78 config_type=initial n_minim_iter=4 stress="-0.00023474664797109012 0.0011966953539930389 0.0005606418416703926 0.0011966953539930389 0.0005126518269705016 0.00013328858267664659 0.0005606418416703926 0.00013328858267664659 0.00107556670383713" pbc="T T T"
Si       5.41276123       1.71591703       1.27162762
Si       8.84699523       1.49056792       1.79537086
Si      12.32182522       3.25142650       2.79305048
Si       7.12376460       0.46895300       1.19221120
Si       5.17435657       3.10224151       2.86703674
Si       8.87262296       4.95261026       3.79426559
Si       8.94445971       0.21120682       0.08363545
Si       8.77768302       2.82670162       3.45857392
Si       7.13117559      -0.67405424      -0.60081217
Si      10.49995123       0.95954636      -1.17975678
Si       6.97311308       1.96884165       2.70534779
Si       7.01036602       3.99335208       3.45110109
12
Lattice="8.924239488183831 -1.0236676597395626 -0.058152899263615374 2.323713743825749 6.842464890311561 -0.4063858953968404 4.729599865471543 -1.9972025275105276 4.2291587608220365" Properties=species:S:1:pos:R:3 unique_starting_index=78 config_type=initial n_minim_iter=5 stress="0.0002326001892090018 -0.0011202235562491852 0.0005701974637912731 -0.0011202235562491852 0.0007029479892674019 -0.0006778971684840142 0.0005701974637912731 -0.0006778971684840142 -0.0012817191693330209" pbc="T T T"
Si       5.41300098       1.71455259       1.27109691
Si       8.84726359       1.48865142       1.79446097
Si      12.32271430       3.24787687       2.79151806
Si       7.12402284       0.46641907       1.19170236
Si       5.17442241       3.10105215       2.86548456
Si       8.87149985       4.95037978       3.79208229
Si       8.94514065       0.20871722       0.08385073
Si       8.77802309       2.82455250       3.45698450
Si       7.13198396      -0.67638946      -0.60017608
Si      10.50093232       0.95648342      -1.17913005
Si       6.97362446       1.96685036       2.70425953
Si       7.00969633       3.99144652       3.44951014
12
Lattice="8.92636916026386 -1.0225470074432539 -0.06330604951709215 2.325306131020506 6.841790761246172 -0.4034118845457868 4.728385720764545 -1.9939008749559353 4.225032558472801" Properties=species:S:1:pos:R:3 unique_starting_index=78 config_type=initial n_minim_iter=6 stress="-0.001168278376540055 -0.00022476890737544935 -0.00042534581243831876 -0.00022476890737544935 0.0008132324722126753 0.00045930009491041795 -0.00042534581243831876 0.00045930009491041795 0.0002573635761620359" pbc="T T T"
Si       5.41458712       1.71595493       1.26924028
Si       8.84787607       1.49283797       1.78996712
Si      12.32700809       3.24965578       2.78581024
Si       7.12372719       0.46668436       1.18891556
Si       5.17579127       3.10378912       2.86335400
Si       8.87030229       4.95329169       3.78828985
Si       8.94642614       0.21033136       0.08062959
Si       8.77919722       2.82822329       3.45350291
Si       7.13371619      -0.67705799      -0.60299176
Si      10.50458188       0.95648591      -1.18269119
Si       6.97604158       1.96907096       2.70226834
Si       7.00906956       3.99324361       3.44779735
12
Lattice="8.930526805004996 -1.0209246075967857 -0.06282173102556202 2.327392599399714 6.839874007915282 -0.40344183430044417 4.7305930228615445 -1.9926824831220022 4.2248101496149415" Properties=species:S:1:pos:R:3 unique_starting_index=78 config_type=initial n_minim_iter=7 stress="0.001184089528559475 0.0006185798686666261 0.00014147257718777806 0.0006185798686666261 -0.0010323354932217938 -0.0003773026092162498 0.00014147257718777806 -0.0003773026092162498 -0.0005322006324786379" pbc="T T T"
Si       5.41766677       1.71628166       1.26936954
Si       8.85230453       1.49410596       1.78974004
Si      12.33401840       3.24994070       2.78563248
Si       7.12711841       0.46724628       1.18944171
Si       5.17923376       3.10339351       2.86279611
Si       8.87500266       4.95299127       3.78761915
Si       8.95041220       0.21160997       0.08142180
Si       8.78402725       2.82872392       3.45334548
Si       7.13715700      -0.67606283      -0.60221230
Si      10.50969689       0.95757826      -1.18158680
Si       6.98008348       1.96923547       2.70240007
Si       7.01304444       3.99278163       3.44765885
12
Lattice="8.932588082682145 -1.0224189610245749 -0.06297985687175155 2.326681374540699 6.838759168693686 -0.4008058992319984 4.732056480991196 -1.9917098078486923 4.22494055345949" Properties=species:S:1:pos:R:3 unique_starting_index=78 config_type=initial n_minim_iter=8 stress="-0.00020939366467973182 -0.00016260434763219175 0.00020388005181785297 -0.00016260434763219175 -0.0006474656369654754 0.0004274047024055901 0.00020388005181785297 0.0004274047024055901 3.283402098162194e-05" pbc="T T T"
Si       5.41952263       1.71655757       1.27090034
Si       8.85338561       1.49565621       1.78847569
Si      12.33793243       3.24696536       2.78581269
Si       7.12858857       0.46541957       1.19202133
Si       5.18174977       3.10243021       2.86270034
Si       8.87386005       4.95380307       3.78799571
Si       8.95019281       0.21002975       0.08312078
Si       8.78491406       2.82950083       3.45471881
Si       7.13989162      -0.67840035      -0.60087457
Si      10.51092175       0.95436444      -1.17822768
Si       6.98182418       1.96818194       2.70446829
Si       7.01386764       3.99280490       3.45052855
12
Lattice="8.934168054684061 -1.0222539292855444 -0.06495440223394709 2.3275261550543473 6.8408181957868335 -0.4036478087088387 4.7317250230479635 -1.9933970882492613 4.224481992948434" Properties=species:S:1:pos:R:3 unique_starting_index=78 config_type=initial n_minim_iter=9 stress="-0.00013344903582263956 0.000268950220440352 -0.0011192889737232157 0.000268950220440352 0.00030538232368212666 -0.0009148171626314452 -0.0011192889737232157 -0.0009148171626314452 -0.00018911875917231513" pbc="T T T"
Si       5.42121113       1.71671902       1.26897702
Si       8.85435100       1.49706774       1.78500899
Si      12.34025875       3.24689387       2.78086573
Si       7.12933915       0.46535787       1.19116936
Si       5.18261724       3.10234945       2.85991324
Si       8.87441081       4.95498968       3.78347456
Si       8.95120847       0.21021776       0.08104598
Si       8.78523621       2.82970092       3.45110255
Si       7.14121264      -0.67821500      -0.60188464
Si      10.51280218       0.95562160      -1.18039976
Si       6.98247033       1.96763997       2.70220440
Si       7.01462566       3.99291187       3.44774247
12
Lattice="8.936147928696254 -1.0237836931337827 -0.06222534690490691 2.326646540741918 6.839875649040471 -0.4022151861341301 4.73439160472584 -1.9936504402112498 4.226176579074324" Properties=species:S:1:pos:R:3 unique_starting_index=78 config_type=initial n_minim_iter=10 stress="4.3969213645605986e-05 -0.00022780346766316086 4.5996088588550766e-05 -0.00022780346766316086 -0.00043557897295934243 0.00018583744506165135 4.5996088588550766e-05 0.00018583744506165135 -0.0002750262466451005" pbc="T T T"
Si       5.42359192       1.71539035       1.27070280
Si       8.85611284       1.49719592       1.78728085
Si      12.34392005       3.24398591       2.78438131
Si       7.13091258       0.46386560       1.19511256
Si       5.18459203       3.10142997       2.86172533
Si       8.87640828       4.95440171       3.78637659
Si       8.95257611       0.20824751       0.08407637
Si       8.78692294       2.82848842       3.45382283
Si       7.14218927      -0.67975141      -0.59892924
Si      10.51376271       0.95401302      -1.17601403
Si       6.98435083       1.96577249       2.70522192
Si       7.01671253       3.99144613       3.45103965
12
Lattice="8.936497999095769 -1.0241944956047209 -0.060085862453928794 2.3264314241754054 6.840918040498753 -0.40414864208629586 4.735496074296204 -1.9954766118318423 4.229481060537708" Properties=species:S:1:pos:R:3 unique_starting_index=78 config_type=initial n_minim_iter=11 stress="-1.2996133267335675e-05 -0.00022996766675857183 0.00040062403215236316 -0.00022996766675857183 8.794097745138802e-06 -0.000525683815664572 0.00040062403215236316 -0.000525683815664572 0.0006010886521483767" pbc="T T T"
Si       5.42520199       1.71451525       1.27083650
Si       8.85632479       1.49868047       1.78780816
Si      12.34595120       3.24204085       2.78540754
Si       7.13244471       0.46172063       1.19811394
Si       5.18599197       3.10102316       2.86268867
Si       8.87772495       4.95467217       3.78725538
Si       8.95231455       0.20733579       0.08626144
Si       8.78693534       2.82787683       3.45511298
Si       7.14159621      -0.68027688      -0.59585054
Si      10.51259067       0.95503755      -1.17329723
Si       6.98471149       1.96491720       2.70804277
Si       7.01750647       3.99024185       3.45291700
12
Lattice="8.937482907205691 -1.0232975466641863 -0.06280327205098042 2.327628869132318 6.841968401787662 -0.4028335866473222 4.734664236124425 -1.9940815559685965 4.22575982735525" Properties=species:S:1:pos:R:3 unique_starting_index=78 config_type=initial n_minim_iter=12 stress="0.00021703653874630778 8.390928139084591e-05 -0.0001921268622626299 8.390928139084591e-05 0.00016018183783035467 0.00041100120571275757 -0.0001921268622626299 0.00041100120571275757 -0.00045401302506597113" pbc="T T T"
Si       5.42685865       1.71524426       1.26861948
Si       8.85671152       1.50180458       1.78360155
Si      12.34749719       3.24387379       2.78032662
Si       7.13383325       0.46160651       1.19705203
Si       5.18662732       3.10286838       2.86063589
Si       8.87866049       4.95773057       3.78390389
Si       8.95329335       0.20793282       0.08409012
Si       8.78717599       2.83073975       3.45143190
Si       7.14210125      -0.68018746      -0.59648715
Si      10.51326138       0.95693009      -1.17483918
Si       6.98435931       1.96663413       2.70578961
Si       7.01758928       3.99272343       3.45086204
12
Lattice="8.937838764835107 -1.0238955526729825 -0.062464221505939 2.327478433375911 6.844136774061641 -0.40537862798773194 4.734896322282748 -1.99637148340621 4.227402912354136" Properties=species:S:1:pos:R:3 unique_starting_index=78 config_type=initial n_minim_iter=13 stress="0.0002298881979573136 6.556772105738378e-06 0.00026729918999089664 6.556772105738378e-06 0.0007884225832745463 -7.144534458033294e-05 0.00026729918999089664 -7.144534458033294e-05 9.03821949876758e-05" pbc="T T T"
Si       5.42907704       1.71410318       1.26691629
Si       8.85542784       1.50396402       1.78114248
Si      12.34770915       3.24235614       2.77730802
Si       7.13552400       0.45905509       1.20021861
Si       5.18716141       3.10245118       2.85974381
Si       8.87898926       4.95719600       3.78223645
Si       8.95390605       0.20674144       0.08463923
Si       8.78755876       2.83142927       3.45057700
Si       7.14157943      -0.68181345      -0.59430844
Si      10.51127712       0.95878065      -1.17465699
Si       6.98497790       1.96625159       2.70603502
Si       7.01740666       3.99377537       3.45107249
12
Lattice="8.938747200450296 -1.0236716951624196 -0.06505324792991966 2.327819158626553 6.842487751298732 -0.40496031306882413 4.734221225897902 -1.9952433496978024 4.226123578100193" Properties=species:S:1:pos:R:3 unique_starting_index=78 config_type=initial n_minim_iter=14 stress="0.00020425464975686324 2.9632682338383312e-05 0.00010557514842080434 2.9632682338383312e-05 0.0004475282830100663 7.640056256471366e-05 0.00010557514842080434 7.640056256471366e-05 -1.546900746741671e-06" pbc="T T T"
Si       5.43088084       1.71326301       1.26528653
Si       8.85493965       1.50555040       1.77775242
Si      12.34760567       3.24146703       2.77307049
Si       7.13672180       0.45817229       1.19992328
Si       5.18693569       3.10125129       2.85816857
Si       8.87894633       4.95640052       3.78049788
Si       8.95480964       0.20697362       0.08299873
Si       8.78790289       2.83208305       3.44865062
Si       7.14163877      -0.68220575      -0.59501442
Si      10.51103691       0.95923124      -1.17676430
Si       6.98557957       1.96698613       2.70510316
Si       7.01742592       3.99287890       3.45035141
12
Lattice="8.938479112087954 -1.0232452984962346 -0.06738427260293677 2.3280048367262496 6.840913065362643 -0.40460519903600006 4.73301256445664 -1.9940521686223325 4.225677384353345" Properties=species:S:1:pos:R:3 unique_starting_index=78 config_type=initial n_minim_iter=15 stress="2.009807332346908e-05 0.00013463012285087116 1.1456796720327998e-05 0.00013463012285087116 5.038829632148043e-05 6.838606775647554e-05 1.1456796720327998e-05 6.838606775647554e-05 -4.7930443901319704e-05" pbc="T T T"
Si       5.43169031       1.71294080       1.26427491
Si       8.85357632       1.50762125       1.77552929
Si      12.34629139       3.24078771       2.76970606
Si       7.13738413       0.45745719       1.19964530
Si       5.18541053       3.10033858       2.85680886
Si       8.87775690       4.95652992       3.77974878
Si       8.95393585       0.20704517       0.08172137
Si       8.78819230       2.83222884       3.44755927
Si       7.14105069      -0.68253265      -0.59544629
Si      10.50979430       0.96024828      -1.17903800
Si       6.98561971       1.96697192       2.70441890
Si       7.01620325       3.99225611       3.45023210
12
Lattice="8.938026079880935 -1.0239800300004158 -0.06787441496616374 2.3272612430415145 6.840222046794046 -0.40540253275295624 4.73263679180682 -1.9946869865541728 4.226389312650092" Properties=species:S:1:pos:R:3 unique_starting_index=78 config_type=initial n_minim_iter=16 stress="3.336550792251892e-05 5.863318029782035e-05 -5.0689308269374425e-05 5.863318029782035e-05 -8.783221344030374e-05 -3.459120177745244e-05 -5.0689308269374425e-05 -3.459120177745244e-05 -3.4316301915703756e-05" pbc="T T T"
Si       5.43168270       1.71212280       1.26387071
Si       8.85312083       1.50757569       1.77457552
Si      12.34489135       3.23898487       2.76836568
Si       7.13716134       0.45619282       1.20033845
Si       5.18435605       3.09912775       2.85598650
Si       8.87609333       4.95581602       3.77950189
Si       8.95347912       0.20613811       0.08153101
Si       8.78831461       2.83077341       3.44747981
Si       7.14015220      -0.68386136      -0.59505250
Si      10.50812358       0.95956023      -1.17979278
Si       6.98502781       1.96625552       2.70439030
Si       7.01493371       3.99071386       3.45013318
12
Lattice="8.936648600969702 -1.024583262772018 -0.06758443868843718 2.3264116805884387 6.840106603569838 -0.40562028473004913 4.73213356768243 -1.995144919717194 4.227378961381356" Properties=species:S:1:pos:R:3 unique_starting_index=78 config_type=initial n_minim_iter=17 stress="-3.1341703035356355e-05 -2.058736814647881e-05 2.5723217885400854e-05 -2.058736814647881e-05 -6.874496827862973e-05 -5.928185656080379e-05 2.5723217885400854e-05 -5.928185656080379e-05 2.7128680910517554e-05" pbc="T T T"
Si       5.43092232       1.71151483       1.26383936
Si       8.85247867       1.50750228       1.77458129
Si      12.34239148       3.23802937       2.76853863
Si       7.13596366       0.45530592       1.20149938
Si       5.18323833       3.09866312       2.85602712
Si       8.87428818       4.95551161       3.78041282
Si       8.95146576       0.20547904       0.08224500
Si       8.78744969       2.83023388       3.44849891
Si       7.13874868      -0.68484225      -0.59392460
Si      10.50573538       0.95918223      -1.18008816
Si       6.98409246       1.96579788       2.70504001
Si       7.01386424       3.98991497       3.45084619
12
Lattice="8.936045774203908 -1.0243485096461502 -0.06873176313545978 2.3264210624960633 6.839528971094056 -0.40558297480984984 4.7312693789104845 -1.9946747773271007 4.227016011382374" Properties=species:S:1:pos:R:3 unique_starting_index=78 config_type=initial n_minim_iter=18 stress="2.7895320640381298e-05 -4.042788074928764e-05 -5.2286121507478525e-05 -4.042788074928764e-05 -9.809762607286028e-05 -6.532518075802147e-06 -5.2286121507478525e-05 -6.532518075802147e-06 -7.544871839397839e-05" pbc="T T T"
Si       5.43033177       1.71148002       1.26308056
Si       8.85262930       1.50829468       1.77373150
Si      12.34069162       3.23810748       2.76682738
Si       7.13526617       0.45501890       1.20112547
Si       5.18258579       3.09860498       2.85520511
Si       8.87347739       4.95578243       3.78004257
Si       8.95065066       0.20549088       0.08112322
Si       8.78679560       2.83054547       3.44796510
Si       7.13803241      -0.68513815      -0.59360690
Si      10.50429264       0.95915775      -1.18150041
Si       6.98384183       1.96578201       2.70406630
Si       7.01335625       3.98978664       3.45046319
12
Lattice="8.935023313466989 -1.0242135477187144 -0.0690658195889829 2.3262402830206454 6.839247773560983 -0.4057053075159485 4.730560990215121 -1.9945181871549076 4.2275927450117505" Properties=species:S:1:pos:R:3 unique_starting_index=78 config_type=initial n_minim_iter=19 stress="-9.592058368918933e-06 -5.4516573267026586e-05 -1.4283517242255829e-05 -5.4516573267026586e-05 -6.32929880979437e-06 -3.1232265353047066e-05 -1.4283517242255829e-05 -3.1232265353047066e-05 -1.2382028906999906e-05" pbc="T T T"
Si       5.42952373       1.71152977       1.26306638
Si       8.85212599       1.50852361       1.77377902
Si      12.33895563       3.23811557       2.76659714
Si       7.13450464       0.45498230       1.20129171
Si       5.18212724       3.09849001       2.85520570
Si       8.87275765       4.95579718       3.78058559
Si       8.94951288       0.20586062       0.08109897
Si       8.78582660       2.83066101       3.44833421
Si       7.13675399      -0.68551169      -0.59335123
Si      10.50261813       0.95928845      -1.18214794
Si       6.98315340       1.96550776       2.70378276
Si       7.01252994       3.98968032       3.45079288
12
Lattice="8.934604286780537 -1.0240389072914404 -0.06938428400605215 2.3262236278532273 6.838730500799549 -0.405217282427077 4.7302148041852705 -1.9939513347837547 4.22773266918017" Properties=species:S:1:pos:R:3 unique_starting_index=78 config_type=initial n_minim_iter=20 stress="-1.5160659204700436e-05 9.430852115397736e-06 1.6543625952392444e-06 9.430852115397736e-06 2.4668746963340135e-05 -3.149933166837773e-06 1.6543625952392444e-06 -3.149933166837773e-06 -4.468302478701705e-05" pbc="T T T"
Si       5.42900620       1.71159293       1.26316045
Si       8.85210031       1.50857980       1.77402022
Si      12.33827947       3.23799102       2.76659434
Si       7.13411305       0.45516430       1.20142972
Si       5.18206507       3.09832321       2.85532677
Si       8.87246696       4.95601152       3.78126655
Si       8.94916755       0.20599159       0.08131769
Si       8.78532258       2.83061616       3.44846459
Si       7.13602570      -0.68546426      -0.59307192
Si      10.50194393       0.95939875      -1.18263716
Si       6.98300250       1.96580412       2.70376249
Si       7.01218868       3.99009472       3.45124176
12
Lattice="8.934649297785366 -1.0244797079318841 -0.06915535485924143 2.3258112173986616 6.838040966190237 -0.40474287299488776 4.730467812192973 -1.993792839165316 4.228325307937039" Properties=species:S:1:pos:R:3 unique_starting_index=78 config_type=initial n_minim_iter=21 stress="-5.634105941775652e-06 6.165850268231801e-05 3.440323599323368e-05 6.165850268231801e-05 1.0999426115876966e-05 1.746368582046611e-06 3.440323599323368e-05 1.746368582046611e-06 -1.90386098059625e-05" pbc="T T T"
Si       5.42889714       1.71113077       1.26363707
Si       8.85234774       1.50781971       1.77480369
Si      12.33829864       3.23662672       2.76726663
Si       7.13404828       0.45497635       1.20198362
Si       5.18195264       3.09811813       2.85588837
Si       8.87238027       4.95537989       3.78236893
Si       8.94913619       0.20549519       0.08207119
Si       8.78539210       2.83013440       3.44917666
Si       7.13580642      -0.68577734      -0.59222204
Si      10.50147628       0.95867416      -1.18230591
Si       6.98302918       1.96564657       2.70396371
Si       7.01212043       3.98981263       3.45201877
