22
Lattice="6.129968953310357 -7.094519288977544e-42 2.2655130921460155e-28 5.911214859613293e-42 5.399933658416494 9.156291968693169e-15 -6.111467679593927e-28 -2.8039381292801345e-14 16.5362571794204" Properties=species:S:1:pos:R:3 unique_starting_index=32 config_type=initial n_minim_iter=1 energy=-3587.922403295807 free_energy=-3587.922403295807 pbc="T T T"
Si       1.92009853       0.23761230       8.98749400
Si       4.20987042       5.16232135       8.98749400
Si       1.92009853       2.46235453       0.71936541
Si       4.20987042       2.93757913       0.71936541
Si       5.62269055       1.76715234      16.16586376
Si       0.50727841       3.63278132      16.16586376
Si       5.62269055       0.93281449       7.89773517
Si       0.50727841       4.46711917       7.89773517
Si       3.54656468       1.64921035      12.14629357
Si       2.58340428       3.75072331      12.14629357
Si       3.54656468       1.05075648       3.87816498
Si       2.58340428       4.34917718       3.87816498
Si       2.60428188       3.70831873       9.66880928
Si       3.52568708       1.69161493       9.66880928
Si       2.60428188       4.39158176       1.40068069
Si       3.52568708       1.00835190       1.40068069
Si       1.88624671       0.54888975       2.66904987
Si       4.24372224       4.85104390       2.66904987
Si       1.88624671       2.15107708      10.93717846
Si       4.24372224       3.24885658      10.93717846
Si       3.06498448       2.69996683       2.60303721
Si       3.06498448      -0.00000000      10.87116580
22
Lattice="6.133873223252088 -7.166930398419072e-42 2.554591929105592e-28 5.89382235259996e-42 5.401153237549616 9.23581911904581e-15 -5.328323671779256e-28 -2.7838617942004894e-14 16.562070838268546" Properties=species:S:1:pos:R:3 unique_starting_index=32 config_type=initial n_minim_iter=2 stress="0.006234156170338419 -4.74681499037987e-16 1.9481071747153527e-15 -4.74681499037987e-16 0.010748380758633725 2.172126846204997e-17 1.9481071747153527e-15 2.172126846204997e-17 0.004747449137796225" pbc="T T T"
Si       1.92163337       0.23777352       9.00212290
Si       4.21223986       5.16337971       9.00212290
Si       1.92163337       2.46280310       0.72108748
Si       4.21223986       2.93835014       0.72108748
Si       5.62638464       1.76760118      16.19083430
Si       0.50748859       3.63355206      16.19083430
Si       5.62638464       0.93297544       7.90979888
Si       0.50748859       4.46817780       7.90979888
Si       3.54904556       1.64925878      12.16555120
Si       2.58482767       3.75189446      12.16555120
Si       3.54904556       1.05131784       3.88451578
Si       2.58482767       4.34983539       3.88451578
Si       2.60622300       3.70929058       9.68377138
Si       3.52765022       1.69186266       9.68377138
Si       2.60622300       4.39243928       1.40273596
Si       3.52765022       1.00871396       1.40273596
Si       1.88744621       0.54918362       2.67250622
Si       4.24642701       4.85196962       2.67250622
Si       1.88744621       2.15139300      10.95354164
Si       4.24642701       3.24976024      10.95354164
Si       3.06693661       2.70057662       2.60752130
Si       3.06693661      -0.00000000      10.88855671
22
Lattice="6.132451968764299 -7.27610358931656e-42 2.938538688994055e-28 5.831972890231834e-42 5.386195550247381 9.464213593633667e-15 -4.266451708525179e-28 -2.709056445370252e-14 16.607676473260536" Properties=species:S:1:pos:R:3 unique_starting_index=32 config_type=initial n_minim_iter=3 stress="0.00789851991076947 -1.604533257316497e-15 1.9039404369121778e-15 -1.604533257316497e-15 -0.006281353207230194 1.3755726835546773e-15 1.9039404369121778e-15 1.3755726835546773e-15 0.005464665020578294" pbc="T T T"
Si       1.92225026       0.23742838       9.02903404
Si       4.21020171       5.14876717       9.02903404
Si       1.92225026       2.45566940       0.72519581
Si       4.21020171       2.93052615       0.72519581
Si       5.62541863       1.76297818      16.23451932
Si       0.50703334       3.62321737      16.23451932
Si       5.62541863       0.93011959       7.93068108
Si       0.50703334       4.45607596       7.93068108
Si       3.54901467       1.64366926      12.19991198
Si       2.58343730       3.74252629      12.19991198
Si       3.54901467       1.04942851       3.89607374
Si       2.58343730       4.33676704       3.89607374
Si       2.60676212       3.69948729       9.71020154
Si       3.52568985       1.68670826       9.71020154
Si       2.60676212       4.37980603       1.40636331
Si       3.52568985       1.00638952       1.40636331
Si       1.88732174       0.54808311       2.67728037
Si       4.24513023       4.83811244       2.67728037
Si       1.88732174       2.14501466      10.98111861
Si       4.24513023       3.24118089      10.98111861
Si       3.06622598       2.69309778       2.61617007
Si       3.06622598      -0.00000000      10.92000830
22
Lattice="6.1201615434491705 -7.303287868317346e-42 3.0138200259983683e-28 5.816344951187928e-42 5.38969730983665 9.35175151178183e-15 -4.050310169874938e-28 -2.746719765030107e-14 16.61637925613698" Properties=species:S:1:pos:R:3 unique_starting_index=32 config_type=initial n_minim_iter=4 stress="-0.0019940072406046845 -2.8236401353918475e-16 1.4387711836089094e-15 -2.8236401353918475e-16 0.00010802190584208313 1.2122802157587442e-15 1.4387711836089094e-15 1.2122802157587442e-15 0.0027148580532988915" pbc="T T T"
Si       1.91914377       0.23785832       9.03541473
Si       4.20101777       5.15183899       9.03541473
Si       1.91914377       2.45699033       0.72722510
Si       4.20101777       2.93270698       0.72722510
Si       5.61417778       1.76416501      16.24236099
Si       0.50598376       3.62553230      16.24236099
Si       5.61417778       0.93068364       7.93417136
Si       0.50598376       4.45901367       7.93417136
Si       3.54240335       1.64419323      12.20676153
Si       2.57775819       3.74550408      12.20676153
Si       3.54240335       1.05065542       3.89857190
Si       2.57775819       4.33904189       3.89857190
Si       2.60249114       3.70225281       9.71508345
Si       3.51767041       1.68744450       9.71508345
Si       2.60249114       4.38229315       1.40689382
Si       3.51767041       1.00740416       1.40689382
Si       1.88406665       0.54874994       2.67687092
Si       4.23609489       4.84094737       2.67687092
Si       1.88406665       2.14609871      10.98506055
Si       4.23609489       3.24359860      10.98506055
Si       3.06008077       2.69484865       2.61869821
Si       3.06008077      -0.00000000      10.92688784
22
Lattice="6.1400121420517095 -7.337602674949119e-42 3.0780224237453583e-28 5.824518080102102e-42 5.3961362807682 9.310941517682146e-15 -3.844276449658597e-28 -2.7464100909984443e-14 16.52404594937419" Properties=species:S:1:pos:R:3 unique_starting_index=32 config_type=initial n_minim_iter=5 stress="0.002486991913177548 -1.229299283637708e-15 1.6800623690323924e-15 -1.229299283637708e-15 0.00026828230012919613 1.5535112186006255e-15 1.6800623690323924e-15 1.5535112186006255e-15 -0.002868230811405482" pbc="T T T"
Si       1.92812759       0.23952193       8.99372675
Si       4.21188455       5.15661435       8.99372675
Si       1.92812759       2.45854621       0.73170377
Si       4.21188455       2.93759007       0.73170377
Si       5.63031417       1.76529537      16.14904482
Si       0.50969797       3.63084091      16.14904482
Si       5.63031417       0.93277277       7.88702184
Si       0.50969797       4.46336352       7.88702184
Si       3.55664894       1.64685009      12.13824937
Si       2.58336320       3.74928619      12.13824937
Si       3.55664894       1.05121805       3.87622640
Si       2.58336320       4.34491823       3.87622640
Si       2.61242272       3.71040018       9.65744697
Si       3.52758942       1.68573611       9.65744697
Si       2.61242272       4.38380425       1.39542400
Si       3.52758942       1.01233203       1.39542400
Si       1.89174018       0.54739505       2.65802146
Si       4.24827196       4.84874123       2.65802146
Si       1.89174018       2.15067309      10.92004444
Si       4.24827196       3.24546319      10.92004444
Si       3.07000607       2.69806814       2.60984738
Si       3.07000607      -0.00000000      10.87187036
22
Lattice="6.119862667228006 -7.311810122791013e-42 3.067082442993717e-28 5.823750714645712e-42 5.394220167011098 9.318704500491976e-15 -3.876972454728806e-28 -2.748623604235043e-14 16.556253801112465" Properties=species:S:1:pos:R:3 unique_starting_index=32 config_type=initial n_minim_iter=6 stress="-0.001773468597390758 1.2269157688813321e-15 2.167546695284433e-15 1.2269157688813321e-15 -0.00461206931193185 7.16142663551602e-16 2.167546695284433e-15 7.16142663551602e-16 -0.0008086406249499674" pbc="T T T"
Si       1.92217929       0.24057637       9.01994120
Si       4.19768337       5.15364379       9.01994120
Si       1.92217929       2.45653371       0.74181430
Si       4.19768337       2.93768646       0.74181430
Si       5.60838817       1.76695392      16.17836132
Si       0.51147450       3.62726625      16.17836132
Si       5.60838817       0.93015616       7.90023442
Si       0.51147450       4.46406401       7.90023442
Si       3.54646822       1.64891701      12.16128820
Si       2.57339445       3.74530316      12.16128820
Si       3.54646822       1.04819307       3.88316129
Si       2.57339445       4.34602709       3.88316129
Si       2.60390952       3.71314110       9.66986813
Si       3.51595315       1.68107907       9.66986813
Si       2.60390952       4.37818915       1.39174123
Si       3.51595315       1.01603101       1.39174123
Si       1.88654964       0.54552486       2.66144555
Si       4.23331302       4.84869530       2.66144555
Si       1.88654964       2.15158522      10.93957245
Si       4.23331302       3.24263495      10.93957245
Si       3.05993133       2.69711008       2.61944637
Si       3.05993133      -0.00000000      10.89757327
22
Lattice="6.127420684477822 -7.329740497743921e-42 3.1035337172338726e-28 5.835440694953747e-42 5.405957942462359 9.30422454969291e-15 -3.7460320637489577e-28 -2.7461961801562018e-14 16.48188557339192" Properties=species:S:1:pos:R:3 unique_starting_index=32 config_type=initial n_minim_iter=7 stress="0.00031020105232611693 1.897293932838062e-15 1.4308962955801038e-15 1.897293932838062e-15 0.002435635734839397 2.632150847285684e-16 1.4308962955801038e-15 2.632150847285684e-16 0.0014797494314716213" pbc="T T T"
Si       1.91511139       0.24831072       9.00116961
Si       4.21230930       5.15764722       9.00116961
Si       1.91511139       2.45466825       0.76022683
Si       4.21230930       2.95128969       0.76022683
Si       5.59975904       1.78316681      16.10257088
Si       0.52766165       3.62279113      16.10257088
Si       5.59975904       0.91981216       7.86162810
Si       0.52766165       4.48614578       7.86162810
Si       3.55264979       1.65765683      12.10987029
Si       2.57477090       3.74830111      12.10987029
Si       3.55264979       1.04532214       3.86892750
Si       2.57477090       4.36063580       3.86892750
Si       2.60591667       3.72307885       9.61365464
Si       3.52150401       1.68287909       9.61365464
Si       2.60591667       4.38585807       1.37271186
Si       3.52150401       1.02009988       1.37271186
Si       1.89079225       0.54033960       2.63713905
Si       4.23662843       4.86561834       2.63713905
Si       1.89079225       2.16263937      10.87808184
Si       4.23662843       3.24331857      10.87808184
Si       3.06371034       2.70297897       2.61427174
Si       3.06371034      -0.00000000      10.85521453
22
Lattice="6.165702704846203 -7.39094679582928e-42 3.214919550767508e-28 5.840856850596718e-42 5.409113328949302 9.25923241449623e-15 -3.386697713026564e-28 -2.7332071810262744e-14 16.31712934706578" Properties=species:S:1:pos:R:3 unique_starting_index=32 config_type=initial n_minim_iter=8 stress="-0.0014117804822865532 2.7427505855601726e-15 4.988185249617047e-16 2.7427505855601726e-15 0.006902061321108458 7.714354199126696e-16 4.988185249617047e-16 7.714354199126696e-16 -0.002354736323706072" pbc="T T T"
Si       1.91191287       0.26413371       8.94432923
Si       4.25378984       5.14497961       8.94432923
Si       1.91191287       2.44042295       0.78576456
Si       4.25378984       2.96869038       0.78576456
Si       5.61148084       1.79956806      15.93625070
Si       0.55422187       3.60954527      15.93625070
Si       5.61148084       0.90498860       7.77768602
Si       0.55422187       4.50412473       7.77768602
Si       3.56713000       1.66147324      11.99187103
Si       2.59857270       3.74764009      11.99187103
Si       3.56713000       1.04308343       3.83330636
Si       2.59857270       4.36602990       3.83330636
Si       2.62301764       3.73555404       9.50021316
Si       3.54268506       1.67355929       9.50021316
Si       2.62301764       4.37811596       1.34164849
Si       3.54268506       1.03099737       1.34164849
Si       1.90679759       0.54183393       2.59585455
Si       4.25890511       4.86727940       2.59585455
Si       1.90679759       2.16272273      10.75441922
Si       4.25890511       3.24639060      10.75441922
Si       3.08285135       2.70455666       2.59099841
Si       3.08285135      -0.00000000      10.74956309
22
Lattice="6.210037920302136 -7.428069076613914e-42 3.2797074614957184e-28 5.850768720951533e-42 5.394974989721728 9.110673854267157e-15 -3.2315455345603123e-28 -2.7690161777098906e-14 16.303073051636794" Properties=species:S:1:pos:R:3 unique_starting_index=32 config_type=initial n_minim_iter=9 stress="-0.003674829470107807 3.249759387927176e-15 2.3720544429401075e-16 3.249759387927176e-15 0.004486118279803072 1.4370448967589246e-16 2.3720544429401075e-16 1.4370448967589246e-16 -0.004757456148335914" pbc="T T T"
Si       1.91087080       0.28438780       8.96696978
Si       4.29916712       5.11058719       8.96696978
Si       1.91087080       2.41309970       0.81543325
Si       4.29916712       2.98187529       0.81543325
Si       5.63330625       1.80560982      15.91568060
Si       0.57673167       3.58936517      15.91568060
Si       5.63330625       0.89187767       7.76414407
Si       0.57673167       4.50309732       7.76414407
Si       3.58104728       1.66558085      11.98131721
Si       2.62899065       3.72939414      11.98131721
Si       3.58104728       1.03190665       3.82978068
Si       2.62899065       4.36306834       3.82978068
Si       2.64448155       3.72860025       9.47905116
Si       3.56555638       1.66637474       9.47905116
Si       2.64448155       4.36386223       1.32751464
Si       3.56555638       1.03111276       1.32751464
Si       1.93197482       0.54005256       2.58181585
Si       4.27806310       4.85492243       2.58181585
Si       1.93197482       2.15743494      10.73335238
Si       4.27806310       3.23754005      10.73335238
Si       3.10501896       2.69748749       2.59176727
Si       3.10501896      -0.00000000      10.74330380
22
Lattice="6.232836253782234 -7.444899811115142e-42 3.303709860640926e-28 5.853023944693107e-42 5.384102897930216 9.019883844636014e-15 -3.207717389740939e-28 -2.8001899432614403e-14 16.356345582573297" Properties=species:S:1:pos:R:3 unique_starting_index=32 config_type=initial n_minim_iter=10 stress="0.001482027798809008 3.7868414665529385e-15 3.7626518033997926e-16 3.7868414665529385e-15 0.0033049000817541164 -3.1684014405526044e-16 3.7626518033997926e-16 -3.1684014405526044e-16 0.004004648439795919" pbc="T T T"
Si       1.91450930       0.28432214       8.99311479
Si       4.31832696       5.09978076       8.99311479
Si       1.91450930       2.40772931       0.81494200
Si       4.31832696       2.97637359       0.81494200
Si       5.65472783       1.80297816      15.96811624
Si       0.57810842       3.58112474      15.96811624
Si       5.65472783       0.88907329       7.78994345
Si       0.57810842       4.49502961       7.78994345
Si       3.58768151       1.66606128      12.02060739
Si       2.64515474       3.71804161      12.02060739
Si       3.58768151       1.02599017       3.84243460
Si       2.64515474       4.35811273       3.84243460
Si       2.65400316       3.72363966       9.51344258
Si       3.57883310       1.66046324       9.51344258
Si       2.65400316       4.35251469       1.33526979
Si       3.57883310       1.03158821       1.33526979
Si       1.94327233       0.54311783       2.58956898
Si       4.28956392       4.84098507       2.58956898
Si       1.94327233       2.14893362      10.76774177
Si       4.28956392       3.23516927      10.76774177
Si       3.11641813       2.69205145       2.59994267
Si       3.11641813      -0.00000000      10.77811547
22
Lattice="6.245004202538069 -7.454139912390309e-42 3.3729708135845615e-28 5.873259235319705e-42 5.38430115581356 8.900457953399615e-15 -2.9984466175735858e-28 -2.8275905780739604e-14 16.3007278223087" Properties=species:S:1:pos:R:3 unique_starting_index=32 config_type=initial n_minim_iter=11 stress="-0.0009151418257965161 2.59836469822381e-15 6.849139289868134e-17 2.59836469822381e-15 -0.001687778283726647 -4.6743356181637e-16 6.849139289868134e-17 -4.6743356181637e-16 -0.00047026891359064804" pbc="T T T"
Si       1.91908128       0.28544197       8.96567334
Si       4.32592292       5.09885919       8.96567334
Si       1.91908128       2.40670861       0.81530943
Si       4.32592292       2.97759255       0.81530943
Si       5.66606259       1.80538978      15.91331562
Si       0.57894162       3.57891137      15.91331562
Si       5.66606259       0.88676080       7.76295171
Si       0.57894162       4.49754036       7.76295171
Si       3.59202884       1.66923331      11.98125130
Si       2.65297536       3.71506784      11.98125130
Si       3.59202884       1.02291726       3.83088739
Si       2.65297536       4.36138389       3.83088739
Si       2.65742679       3.72459388       9.47976689
Si       3.58757741       1.65970727       9.47976689
Si       2.65742679       4.35185785       1.32940297
Si       3.58757741       1.03244330       1.32940297
Si       1.94716026       0.54488594       2.57817247
Si       4.29784394       4.83941522       2.57817247
Si       1.94716026       2.14726464      10.72853638
Si       4.29784394       3.23703652      10.72853638
Si       3.12250210       2.69215058       2.59062852
Si       3.12250210      -0.00000000      10.74099243
22
Lattice="6.257077257521024 -7.434652763197017e-42 3.451504695649817e-28 5.931139218913158e-42 5.380950746007206 8.49665905801481e-15 -2.7702532489714387e-28 -2.9424309323303916e-14 16.25816430369939" Properties=species:S:1:pos:R:3 unique_starting_index=32 config_type=initial n_minim_iter=12 stress="-0.0012085902330953664 2.2091022610205256e-15 5.589097599544451e-16 2.2091022610205256e-15 -0.006482168443807461 -6.095146851911378e-16 5.589097599544451e-16 -6.095146851911378e-16 -0.0032789434462115984" pbc="T T T"
Si       1.92214452       0.28698802       8.94570642
Si       4.33493273       5.09396273       8.94570642
Si       1.92214452       2.40348735       0.81662427
Si       4.33493273       2.97746339       0.81662427
Si       5.67374044       1.80525573      15.87177114
Si       0.58333682       3.57569502      15.87177114
Si       5.67374044       0.88521965       7.74268899
Si       0.58333682       4.49573110       7.74268899
Si       3.59666352       1.67083623      11.95047583
Si       2.66041374       3.71011451      11.95047583
Si       3.59666352       1.01963914       3.82139368
Si       2.66041374       4.36131161       3.82139368
Si       2.66186872       3.72266822       9.45207965
Si       3.59520854       1.65828253       9.45207965
Si       2.66186872       4.34875790       1.32299750
Si       3.59520854       1.03219284       1.32299750
Si       1.95095027       0.54691893       2.56756861
Si       4.30612699       4.83403181       2.56756861
Si       1.95095027       2.14355644      10.69665076
Si       4.30612699       3.23739430      10.69665076
Si       3.12853863       2.69047537       2.58955532
Si       3.12853863      -0.00000000      10.71863747
22
Lattice="6.271145525660185 -7.458714075342038e-42 3.529693534444602e-28 5.93599034514567e-42 5.379980819054882 8.447269105452023e-15 -2.555165812850791e-28 -2.953795813960416e-14 16.23766317413341" Properties=species:S:1:pos:R:3 unique_starting_index=32 config_type=initial n_minim_iter=13 stress="-0.000729116957635896 2.9494529032247057e-15 -2.1179908773408895e-18 2.9494529032247057e-15 0.00023068393335584408 -8.52077693555273e-16 -2.1179908773408895e-18 -8.52077693555273e-16 -0.0007010753595082473" pbc="T T T"
Si       1.92570038       0.28952169       8.93756544
Si       4.34544515       5.09045913       8.93756544
Si       1.92570038       2.40046872       0.81873386
Si       4.34544515       2.97951210       0.81873386
Si       5.68283108       1.80618851      15.85216000
Si       0.58831444       3.57379231      15.85216000
Si       5.68283108       0.88380190       7.73332841
Si       0.58831444       4.49617892       7.73332841
Si       3.60437456       1.67657321      11.93663885
Si       2.66677096       3.70340761      11.93663885
Si       3.60437456       1.01341720       3.81780727
Si       2.66677096       4.36656362       3.81780727
Si       2.66932903       3.72398447       9.43833009
Si       3.60181650       1.65599635       9.43833009
Si       2.66932903       4.34598676       1.31949851
Si       3.60181650       1.03399406       1.31949851
Si       1.95571764       0.54916516       2.55990035
Si       4.31542789       4.83081566       2.55990035
Si       1.95571764       2.14082525      10.67873194
Si       4.31542789       3.23915557      10.67873194
Si       3.13557276       2.68999041       2.58926393
Si       3.13557276      -0.00000000      10.70809552
22
Lattice="6.282918348274667 -7.475521927143088e-42 3.61046039708425e-28 5.951986593743696e-42 5.381718324496319 8.340336065950171e-15 -2.3308898644746614e-28 -2.984164897704208e-14 16.216504394056432" Properties=species:S:1:pos:R:3 unique_starting_index=32 config_type=initial n_minim_iter=14 stress="8.155833056629059e-05 2.3126651846437554e-15 -4.958295147177231e-16 2.3126651846437554e-15 0.0017864213446056312 -1.465295891313759e-16 -4.958295147177231e-16 -1.465295891313759e-16 0.0006271926790468919" pbc="T T T"
Si       1.93012084       0.29121214       8.92559485
Si       4.35279751       5.09050618       8.92559485
Si       1.93012084       2.39964702       0.81734265
Si       4.35279751       2.98207130       0.81734265
Si       5.69469388       1.80935345      15.83231580
Si       0.58822447       3.57236487      15.83231580
Si       5.69469388       0.88150571       7.72406361
Si       0.58822447       4.50021261       7.72406361
Si       3.60936150       1.68020422      11.92058110
Si       2.67355685       3.70151410      11.92058110
Si       3.60936150       1.01065494       3.81232890
Si       2.67355685       4.37106339       3.81232890
Si       2.67374335       3.72539742       9.42614462
Si       3.60917500       1.65632090       9.42614462
Si       2.67374335       4.34718006       1.31789242
Si       3.60917500       1.03453826       1.31789242
Si       1.95973902       0.55129539       2.55512382
Si       4.32317933       4.83042294       2.55512382
Si       1.95973902       2.13956377      10.66337602
Si       4.32317933       3.24215455      10.66337602
Si       3.14145917       2.69085916       2.58857612
Si       3.14145917      -0.00000000      10.69682832
22
Lattice="6.2936424199534216 -7.481855701529009e-42 3.6885963438673466e-28 5.978323556433794e-42 5.379731071343168 8.113187147231296e-15 -2.117408075306995e-28 -3.050644417190992e-14 16.203841253761887" Properties=species:S:1:pos:R:3 unique_starting_index=32 config_type=initial n_minim_iter=15 stress="0.00039623584174932784 2.1737758896978007e-15 1.479819023696432e-15 2.1737758896978007e-15 -0.00044843618567452087 2.1074727071455e-16 1.479819023696432e-15 2.1074727071455e-16 0.0004560585573956292" pbc="T T T"
Si       1.93472225       0.29229223       8.92025377
Si       4.35892017       5.08743884       8.92025377
Si       1.93472225       2.39757330       0.81833314
Si       4.35892017       2.98215777       0.81833314
Si       5.70274369       1.80995835      15.82091496
Si       0.59089873       3.56977273      15.82091496
Si       5.70274369       0.87990719       7.71899434
Si       0.59089873       4.49982388       7.71899434
Si       3.61282552       1.68274327      11.91140994
Si       2.68081690       3.69698780      11.91140994
Si       3.61282552       1.00712226       3.80948931
Si       2.68081690       4.37260881       3.80948931
Si       2.67640908       3.72460397       9.41820014
Si       3.61723334       1.65512710       9.41820014
Si       2.67640908       4.34499263       1.31627952
Si       3.61723334       1.03473844       1.31627952
Si       1.96433583       0.55290865       2.55024638
Si       4.32930659       4.82682242       2.55024638
Si       1.96433583       2.13695689      10.65216701
Si       4.32930659       3.24277418      10.65216701
Si       3.14682121       2.68986554       2.58802989
Si       3.14682121      -0.00000000      10.68995052
22
Lattice="6.356485063777112 -7.585385451919507e-42 3.8496149700556664e-28 5.957502934040067e-42 5.3779529711198855 8.283275453815156e-15 -1.6513161533199938e-28 -2.9837101779024025e-14 16.112081940578243" Properties=species:S:1:pos:R:3 unique_starting_index=32 config_type=initial n_minim_iter=16 stress="-0.0019390010681881527 3.0582104713598514e-15 3.3590826755268312e-16 3.0582104713598514e-15 -0.0017252529421082174 8.258597199392606e-16 3.3590826755268312e-16 8.258597199392606e-16 -0.001646382084051075" pbc="T T T"
Si       1.95954847       0.30162810       8.88040429
Si       4.39693659       5.07632487       8.88040429
Si       1.95954847       2.38734838       0.82436332
Si       4.39693659       2.99060459       0.82436332
Si       5.74727119       1.82034727      15.73806585
Si       0.60921387       3.55760570      15.73806585
Si       5.74727119       0.86862922       7.68202488
Si       0.60921387       4.50932375       7.68202488
Si       3.64219673       1.69451427      11.84180387
Si       2.71428833       3.68343870      11.84180387
Si       3.64219673       0.99446221       3.78576290
Si       2.71428833       4.38349076       3.78576290
Si       2.69978139       3.72860672       9.35944130
Si       3.65670367       1.64934625       9.35944130
Si       2.69978139       4.33832273       1.30340033
Si       3.65670367       1.03963024       1.30340033
Si       1.99163755       0.56169139       2.52136427
Si       4.36484751       4.81626158       2.52136427
Si       1.99163755       2.12728509      10.57740524
Si       4.36484751       3.25066788      10.57740524
Si       3.17824253       2.68897649       2.58260208
Si       3.17824253      -0.00000000      10.63864305
22
Lattice="7.145851357457395 -8.357893726719082e-42 4.332666328892168e-28 6.006186232028835e-42 5.41217019888368 1.0254014117393039e-14 -1.2927409542654302e-30 -2.2956571166353646e-14 15.435214388917041" Properties=species:S:1:pos:R:3 unique_starting_index=32 config_type=initial n_minim_iter=17 stress="0.016347633433428026 1.37459684370646e-15 -2.5333696848565275e-15 1.37459684370646e-15 0.04478231194423608 5.043980896329539e-15 -2.5333696848565275e-15 5.043980896329539e-15 0.0054635338173810374" pbc="T T T"
Si       2.28150194       0.41442557       8.61754153
Si       4.86434941       4.99774463       8.61754153
Si       2.28150194       2.29165953       0.89993433
Si       4.86434941       3.12051067       0.89993433
Si       6.28704873       1.99461701      15.17362465
Si       0.85880263       3.41755319      15.17362465
Si       6.28704873       0.71146809       7.45601746
Si       0.85880263       4.70070211       7.45601746
Si       4.06999619       1.77887565      11.29872496
Si       3.07585517       3.63329455      11.29872496
Si       4.06999619       0.92720945       3.58111776
Si       3.07585517       4.48496075       3.58111776
Si       2.98082730       3.81058294       8.91290094
Si       4.16502405       1.60158726       8.91290094
Si       2.98082730       4.30767236       1.19529374
Si       4.16502405       1.10449784       1.19529374
Si       2.39944147       0.63982145       2.28185354
Si       4.74640988       4.77234875       2.28185354
Si       2.39944147       2.06626365       9.99946073
Si       4.74640988       3.34590655       9.99946073
Si       3.57292568       2.70608510       2.52536365
Si       3.57292568      -0.00000000      10.24297084
22
Lattice="7.149311135002833 -8.288924106738975e-42 4.336242490698863e-28 6.023577695198885e-42 5.412323316063451 1.0883812173753986e-14 -1.6884381056624193e-31 -2.1038516772052147e-14 15.432706156542599" Properties=species:S:1:pos:R:3 unique_starting_index=32 config_type=initial n_minim_iter=18 stress="0.016461487204121685 -6.116684930689159e-17 -3.780466273344913e-15 -6.116684930689159e-17 0.04434279015032187 6.316066559917547e-15 -3.780466273344913e-15 6.316066559917547e-15 0.0050616674480615095" pbc="T T T"
Si       2.28297280       0.41489089       8.61657461
Si       4.86633834       4.99743243       8.61657461
Si       2.28297280       2.29127077       0.90022154
Si       4.86633834       3.12105255       0.90022154
Si       6.28937170       1.99535788      15.17158568
Si       0.85993944       3.41696543      15.17158568
Si       6.28937170       0.71080377       7.45523260
Si       0.85993944       4.70151954       7.45523260
Si       4.07189650       1.77920682      11.29668313
Si       3.07741464       3.63311649      11.29668313
Si       4.07189650       0.92695484       3.58033005
Si       3.07741464       4.48536848       3.58033005
Si       2.98202510       3.81093734       8.91124747
Si       4.16728604       1.60138598       8.91124747
Si       2.98202510       4.30754763       1.19489439
Si       4.16728604       1.10477568       1.19489439
Si       2.40129940       0.64014814       2.28093034
Si       4.74801173       4.77217518       2.28093034
Si       2.40129940       2.06601352       9.99728342
Si       4.74801173       3.34630979       9.99728342
Si       3.57465557       2.70616166       2.52515947
Si       3.57465557      -0.00000000      10.24151255
22
Lattice="7.207240551565118 -8.358581821194258e-42 4.356118454370361e-28 6.054559458528474e-42 5.429099278788636 1.0722883214625487e-14 -6.235807751721365e-32 -2.1744625101705727e-14 15.50201739927005" Properties=species:S:1:pos:R:3 unique_starting_index=32 config_type=initial n_minim_iter=19 stress="0.019513215060207475 3.916868418145289e-17 2.276021999547991e-16 3.916868418145289e-17 0.059276672646790124 5.376772104707439e-15 2.276021999547991e-16 5.376772104707439e-15 0.006873598714860255" pbc="T T T"
Si       2.32069128       0.42100817       8.65401062
Si       4.88654927       5.00809111       8.65401062
Si       2.32069128       2.29354147       0.90300192
Si       4.88654927       3.13555781       0.90300192
Si       6.32568956       2.01974350      15.25806307
Si       0.88155099       3.40935578      15.25806307
Si       6.32568956       0.69480614       7.50705437
Si       0.88155099       4.73429314       7.50705437
Si       4.12073573       1.77169916      11.33542630
Si       3.08650482       3.65740012      11.33542630
Si       4.12073573       0.94285048       3.58441760
Si       3.08650482       4.48624880       3.58441760
Si       2.99737452       3.82694327       8.95340741
Si       4.20986603       1.60215601       8.95340741
Si       2.99737452       4.31670565       1.20239871
Si       4.20986603       1.11239363       1.20239871
Si       2.44814025       0.64188702       2.28768819
Si       4.75910030       4.78721226       2.28768819
Si       2.44814025       2.07266262      10.03869689
Si       4.75910030       3.35643666      10.03869689
Si       3.60362028       2.71454964       2.52902966
Si       3.60362028      -0.00000000      10.28003836
22
Lattice="7.243194358932701 -8.387487375703515e-42 4.40722112253927e-28 6.054596980689432e-42 5.413578854086535 1.0727475585110131e-14 -3.133278213474235e-32 -2.201160159562684e-14 15.683464863064488" Properties=species:S:1:pos:R:3 unique_starting_index=32 config_type=initial n_minim_iter=20 stress="0.026746533008427616 4.971844583677489e-16 -1.167132166424536e-15 4.971844583677489e-16 0.029163930582565077 5.4641751282599e-15 -1.167132166424536e-15 5.4641751282599e-15 0.021589528170747118" pbc="T T T"
Si       2.36360587       0.42599526       8.74023354
Si       4.87958848       4.98758359       8.74023354
Si       2.36360587       2.28079416       0.89850111
Si       4.87958848       3.13278469       0.89850111
Si       6.35251464       2.02714491      15.45930825
Si       0.89067971       3.38643394      15.45930825
Si       6.35251464       0.67964452       7.61757581
Si       0.89067971       4.73393434       7.61757581
Si       4.14890284       1.77232533      11.45963981
Si       3.09429152       3.64125352      11.45963981
Si       4.14890284       0.93446410       3.61790738
Si       3.09429152       4.47911476       3.61790738
Si       2.99084632       3.82555170       9.06765740
Si       4.25234804       1.58802716       9.06765740
Si       2.99084632       4.29481658       1.22592497
Si       4.25234804       1.11876227       1.22592497
Si       2.48750127       0.64893877       2.30138019
Si       4.75569309       4.76464008       2.30138019
Si       2.48750127       2.05785066      10.14311262
Si       4.75569309       3.35572820      10.14311262
Si       3.62159718       2.70678943       2.56766030
Si       3.62159718      -0.00000000      10.40939273
22
Lattice="7.1785915914683684 -8.287307204772589e-42 4.423222117995035e-28 6.059073612383171e-42 5.409665732406479 1.0968425587826987e-14 -1.6663954056326335e-32 -2.136912297058341e-14 15.74021842631833" Properties=species:S:1:pos:R:3 unique_starting_index=32 config_type=initial n_minim_iter=21 stress="0.020462439233258037 2.506870049491056e-15 3.94326417702806e-16 2.506870049491056e-15 -0.010534999389616622 5.178415281282266e-15 3.94326417702806e-16 5.178415281282266e-15 0.01569353139412248" pbc="T T T"
Si       2.38298862       0.43149673       8.75349173
Si       4.79560297       4.97816900       8.75349173
Si       2.38298862       2.27333614       0.88338252
Si       4.79560297       3.13632959       0.88338252
Si       6.30517360       2.03356316      15.53586227
Si       0.87341799       3.37610257      15.53586227
Si       6.30517360       0.67126970       7.66575306
Si       0.87341799       4.73839603       7.66575306
Si       4.12775434       1.77148572      11.49746086
Si       3.05083725       3.63818001      11.49746086
Si       4.12775434       0.93334714       3.62735165
Si       3.05083725       4.47631859       3.62735165
Si       2.93420994       3.82784370       9.10610295
Si       4.24438165       1.58182203       9.10610295
Si       2.93420994       4.28665490       1.23599373
Si       4.24438165       1.12301083       1.23599373
Si       2.47375663       0.65624229       2.30214705
Si       4.70483496       4.75342344       2.30214705
Si       2.47375663       2.04859058      10.17225626
Si       4.70483496       3.36107515      10.17225626
Si       3.58929580       2.70483287       2.58362140
Si       3.58929580      -0.00000000      10.45373061
