12
Lattice="4.2698209435876775 -7.54829213357469e-33 -3.461641948632785e-21 1.5639651368490277e-32 8.825257616056936 1.599392112034639e-12 4.571957206249598e-21 -1.031334438332385e-12 5.689954437048439" Properties=species:S:1:pos:R:3 unique_starting_index=60 config_type=initial n_minim_iter=11 energy=-1956.6658861091212 free_energy=-1956.6658861091212 pbc="T T T"
Si       2.42973772       3.36912537      -0.19397829
Si       2.42973772       5.45613225       5.88393273
Si       0.29482725       1.04350344       2.65099893
Si       0.29482725       7.78175417       3.03895551
Si       3.49890610       6.31433088       1.85515493
Si       3.49890610       2.51092673       3.83479950
Si       1.36399563       6.92355554       4.70013215
Si       1.36399563       1.90170208       0.98982228
Si       0.29831275       3.36914869       5.49586948
Si       0.29831275       5.45610893       0.19408496
Si       2.43322322       1.04348012       2.65089226
Si       2.43322322       7.78177749       3.03906218
