16
Lattice="5.427725200250587 0.49237759427399613 0.4806095894387796 2.3299330528913633 6.709418480743149 -0.3328334722090368 1.2778919881269695 0.3105505833825296 10.015733890230573" Properties=species:S:1:pos:R:3 unique_starting_index=92 config_type=initial n_minim_iter=1 energy=-2613.8180350282855 free_energy=-2613.8180350282855 pbc="T T T"
Si       4.10236599       7.28803132       4.21485375
Si       0.70639461       0.40805863       0.53454313
Si       3.62670204       5.51532699       5.30934131
Si       3.24254130       3.61083723       4.32860451
Si       7.72868525       4.82579075       8.92563150
Si       3.76875376       2.97927807       7.73926456
Si       5.13282053       2.42433240       4.26965636
Si       3.43478191       5.40540165       3.18535259
Si       3.98525260       5.10871412       7.37880241
Si       2.58811227       2.42704569       9.44774608
Si       4.58400820       3.65385276       5.92116805
Si       3.72314914       5.54977037       9.41460731
Si       6.32818974       1.09952874       3.09879385
Si       2.51358246       4.02463214       6.34355894
Si       7.61431946       6.10176012       1.94558126
Si       2.34636516       1.49458458       1.32325683
16
Lattice="5.4164228901556575 0.49611594943019405 0.4995032581128465 2.3301004875209443 6.687704613539263 -0.32816700165166 1.3083696192245262 0.3072158209425283 10.041054921540828" Properties=species:S:1:pos:R:3 unique_starting_index=92 config_type=initial n_minim_iter=2 stress="-0.006250810074324018 -0.0034710656920781675 0.007359330606508787 -0.0034710656920781675 -0.01022880795988222 0.002436908137821456 0.007359330606508787 0.002436908137821456 -0.0026158100592199034" pbc="T T T"
Si       4.11230308       7.26338605       4.23532104
Si       0.70642406       0.40642960       0.53726140
Si       3.64134621       5.49645189       5.32986130
Si       3.25290094       3.59998134       4.34773982
Si       7.74380130       4.81196442       8.96818958
Si       3.78801989       2.96998750       7.76784456
Si       5.13698746       2.41897803       4.29523339
Si       3.44350313       5.38836244       3.20191733
Si       4.00531164       5.09118434       7.40528558
Si       2.61634140       2.41791226       9.47607359
Si       4.59631458       3.64487650       5.94792609
Si       3.75231070       5.53120848       9.44549487
Si       6.32305958       1.10199595       3.12571546
Si       2.53344133       4.00938284       6.36241141
Si       7.60866491       6.08822978       1.97335525
Si       2.34578916       1.49162907       1.33310978
16
Lattice="5.418076290915851 0.5058756330206783 0.5010025570858543 2.3426878184430526 6.695803130955105 -0.33539324973846696 1.3106908259762517 0.2995641003330086 10.064627039547211" Properties=species:S:1:pos:R:3 unique_starting_index=92 config_type=initial n_minim_iter=3 stress="0.0046832333534405635 0.006412988725233095 0.007371369986595047 0.006412988725233095 0.004837637898573763 -0.005452919476151239 0.007371369986595047 -0.005452919476151239 0.018969643721162284" pbc="T T T"
Si       4.12359114       7.26899724       4.23745992
Si       0.70692789       0.40650682       0.53749711
Si       3.65312167       5.49931151       5.33608687
Si       3.26110736       3.60370122       4.35564049
Si       7.75367720       4.81758406       8.98513584
Si       3.79504059       2.97084063       7.78473785
Si       5.14238032       2.42521218       4.30463842
Si       3.45588059       5.39433626       3.20494058
Si       4.01650069       5.09321977       7.41710397
Si       2.62375995       2.41498269       9.49735648
Si       4.60521581       3.65143055       5.95922177
Si       3.76645382       5.53257175       9.46347621
Si       6.32565932       1.11186026       3.13366375
Si       2.54272592       4.00767673       6.37197227
Si       7.62174907       6.10534157       1.97422092
Si       2.34805300       1.49624952       1.33431548
16
Lattice="5.404055349063763 0.5188445990585306 0.49063455570176007 2.3546189472559846 6.688447850007659 -0.34234302894240204 1.2905652016047815 0.2973461684410671 10.049220660340115" Properties=species:S:1:pos:R:3 unique_starting_index=92 config_type=initial n_minim_iter=4 stress="-0.011165778837647335 0.01240910827046135 -0.0009110190555299482 0.01240910827046135 -0.015184094002639661 -0.00954055699196967 -0.0009110190555299482 -0.00954055699196967 -0.014360747539148441" pbc="T T T"
Si       4.11111449       7.25706266       4.21612365
Si       0.70441484       0.40481116       0.53294675
Si       3.64966369       5.49011710       5.31518109
Si       3.25626807       3.60404309       4.34552671
Si       7.72546498       4.81636902       8.95516738
Si       3.77872438       2.97167018       7.77030916
Si       5.12546884       2.43171615       4.29311837
Si       3.46078598       5.39113575       3.19386594
Si       4.00617053       5.08800168       7.39411368
Si       2.61088144       2.41417356       9.48340252
Si       4.59508210       3.66128078       5.94253423
Si       3.76166508       5.53045399       9.44466444
Si       6.30491930       1.12688931       3.12093708
Si       2.53755341       3.99583164       6.35130251
Si       7.61677136       6.11944703       1.96009613
Si       2.33858442       1.50132594       1.32480123
16
Lattice="5.403244632128158 0.5082374664463125 0.4943026119686531 2.338885806230372 6.690497091998969 -0.32130993734395064 1.2907736815266537 0.32746743934584027 10.083438880902774" Properties=species:S:1:pos:R:3 unique_starting_index=92 config_type=initial n_minim_iter=5 stress="-0.0022209319427520754 0.0035660174199039396 -0.0016205965672365917 0.0035660174199039396 -0.012116698606057597 0.008184604372563848 -0.0016205965672365917 0.008184604372563848 0.0174552466169348" pbc="T T T"
Si       4.08168952       7.26473835       4.25081867
Si       0.70311668       0.40376194       0.53350682
Si       3.63806809       5.50131999       5.34657319
Si       3.25042525       3.61620576       4.37446763
Si       7.71203742       4.82740727       8.99809867
Si       3.77241936       2.99258070       7.80970132
Si       5.11741784       2.43752642       4.32049617
Si       3.45428447       5.40042344       3.22396515
Si       3.99372495       5.10791213       7.43271039
Si       2.61039148       2.44350007       9.52743596
Si       4.59130241       3.68192237       5.97522881
Si       3.75586724       5.56246731       9.49627110
Si       6.30206535       1.12567627       3.13512098
Si       2.53033777       4.00887310       6.37998185
Si       7.60553342       6.12334559       1.99171089
Si       2.32966515       1.50447962       1.33155465
16
Lattice="5.405841562062558 0.4927911300729008 0.5121860196447019 2.316721683773811 6.728060452264287 -0.32491379690955496 1.3279975679370073 0.3052867549675359 10.055385810209486" Properties=species:S:1:pos:R:3 unique_starting_index=92 config_type=initial n_minim_iter=6 stress="-0.005598228422119543 -0.002027157675171031 0.009062954494384969 -0.002027157675171031 0.002051219023848626 -0.003301617729489346 0.009062954494384969 -0.003301617729489346 -0.000285403639091357" pbc="T T T"
Si       4.06067260       7.28562850       4.23601426
Si       0.70352267       0.40163698       0.53119920
Si       3.64205105       5.50922926       5.32828495
Si       3.25944052       3.62101394       4.36829153
Si       7.73211531       4.81083502       8.98409708
Si       3.79377373       2.98535551       7.79678066
Si       5.12429130       2.42904785       4.32724583
Si       3.45758277       5.41872552       3.21692938
Si       4.00319150       5.11273108       7.41294636
Si       2.64483366       2.43363462       9.50821607
Si       4.61027902       3.68682872       5.96677949
Si       3.78072360       5.56949844       9.46892645
Si       6.30990550       1.11032174       3.14293439
Si       2.54331330       4.00581834       6.35623871
Si       7.59890698       6.14390728       2.00678293
Si       2.32381512       1.50775923       1.32967542
16
Lattice="5.445505984883398 0.49398922152228275 0.5027413425999872 2.3362582330683637 6.720391589241941 -0.32213730899802623 1.3216154847061765 0.3136694760049404 10.028287462307073" Properties=species:S:1:pos:R:3 unique_starting_index=92 config_type=initial n_minim_iter=7 stress="0.023468560890232578 0.0002712805359483982 0.0012189474219569502 0.0002712805359483982 -0.011909762174575053 -0.0049136664718116676 0.0012189474219569502 -0.0049136664718116676 -0.00524242129214664" pbc="T T T"
Si       4.04800409       7.26961981       4.22993958
Si       0.70608297       0.40269589       0.51838498
Si       3.66333635       5.49096561       5.31393178
Si       3.29021151       3.61922096       4.35404340
Si       7.78362629       4.80734951       8.94303632
Si       3.81295513       2.99383741       7.77737539
Si       5.14906658       2.42796391       4.32406529
Si       3.49880365       5.42113448       3.20012796
Si       4.00839269       5.11193344       7.39366818
Si       2.66486097       2.44004521       9.50485498
Si       4.65914362       3.70518105       5.94902041
Si       3.80189952       5.56623645       9.43759694
Si       6.33045329       1.12275738       3.11614955
Si       2.55392130       3.98189458       6.33806493
Si       7.65938606       6.15997647       2.00903232
Si       2.32705870       1.52429373       1.30912961
16
Lattice="5.412725895657602 0.5007983739127071 0.4947538397049446 2.3278177918804257 6.749396715932093 -0.31485599635204536 1.2974879335622014 0.3328327509119561 10.03192163777297" Properties=species:S:1:pos:R:3 unique_starting_index=92 config_type=initial n_minim_iter=8 stress="-0.0021439020055078295 -0.0005178917705772335 -0.006566519318725587 -0.0005178917705772335 -0.002803613876592566 -0.002702041998345053 -0.006566519318725587 -0.002702041998345053 -0.0027494390558034255" pbc="T T T"
Si       4.00588207       7.30625523       4.23981677
Si       0.70051602       0.40629023       0.51340515
Si       3.63677533       5.51753794       5.32163187
Si       3.27227130       3.64232507       4.35530867
Si       7.72938289       4.84513712       8.94049166
Si       3.78135453       3.02417123       7.78079950
Si       5.11032658       2.44674225       4.32725188
Si       3.48512276       5.45392600       3.20083571
Si       3.97028349       5.14810989       7.39970651
Si       2.64225337       2.46934994       9.51871124
Si       4.63430117       3.74043962       5.95260618
Si       3.76958670       5.60461619       9.44311449
Si       6.27999792       1.14313231       3.10524916
Si       2.53265729       3.99998247       6.34353429
Si       7.61642955       6.20147114       2.01266508
Si       2.30599428       1.54150695       1.30234173
16
Lattice="5.420874585752704 0.5131880377657503 0.5026384634401795 2.3418547557768727 6.769886098547168 -0.2873663664822332 1.3134698701709504 0.370686488011315 10.006635342879957" Properties=species:S:1:pos:R:3 unique_starting_index=92 config_type=initial n_minim_iter=9 stress="0.003267191175818897 0.006890485530542389 -0.0010389012999588861 0.006890485530542389 0.005062622152214452 0.011254567609312455 -0.0010389012999588861 0.011254567609312455 -0.0145181109682929" pbc="T T T"
Si       4.01468260       7.34608180       4.26038135
Si       0.70099051       0.40986553       0.51003819
Si       3.65609150       5.55059800       5.33300064
Si       3.29492114       3.67176892       4.35645840
Si       7.75921440       4.89876253       8.94689510
Si       3.80508781       3.06664401       7.77363339
Si       5.12452628       2.47371980       4.33467773
Si       3.51082094       5.48711840       3.21242973
Si       3.99275268       5.19572147       7.39994739
Si       2.66901508       2.51751744       9.50770958
Si       4.66341774       3.78142240       5.95996105
Si       3.79567308       5.65422246       9.44078029
Si       6.28910583       1.17543379       3.10757238
Si       2.55370384       4.02811280       6.34229762
Si       7.63781599       6.24051862       2.03841424
Si       2.30831312       1.55941071       1.30496859
16
Lattice="5.421251646723475 0.4811754371080996 0.49250602880176886 2.307110911396572 6.745137448304989 -0.3076932053501243 1.2955917983821768 0.338965109657302 10.010198940368799" Properties=species:S:1:pos:R:3 unique_starting_index=92 config_type=initial n_minim_iter=10 stress="0.007276265705327741 -0.0017218827361779926 -0.0008132693461483559 -0.0017218827361779926 -0.0034997386272175523 0.0019104515922302643 -0.0008132693461483559 0.0019104515922302643 0.0018727897970744977" pbc="T T T"
Si       3.93068240       7.30113917       4.24314725
Si       0.69401108       0.40164854       0.49509437
Si       3.61180963       5.49217554       5.32211944
Si       3.28909678       3.63493816       4.33299918
Si       7.72130565       4.81744783       8.94402237
Si       3.78901563       3.02290594       7.76191917
Si       5.10042759       2.42207514       4.33463764
Si       3.49873969       5.45577939       3.18659518
Si       3.95228370       5.15161649       7.37863549
Si       2.65641804       2.48978676       9.50804090
Si       4.66205841       3.73786399       5.96035486
Si       3.74578534       5.58962278       9.42853730
Si       6.27126642       1.15182417       3.09260172
Si       2.53044758       3.97017122       6.33161689
Si       7.60010172       6.18635354       2.00667918
Si       2.28622137       1.55309367       1.29567014
16
Lattice="5.40738456766932 0.4818164160688925 0.4822170371011889 2.3025560499554025 6.746231272464993 -0.3085260792792671 1.273406041798852 0.3443209862876066 10.004389028703446" Properties=species:S:1:pos:R:3 unique_starting_index=92 config_type=initial n_minim_iter=11 stress="-0.006817247641413355 0.0008108775712276048 -0.008677633815961865 0.0008108775712276048 -0.005672889189013592 0.004105350398367138 -0.008677633815961865 0.004105350398367138 -0.007830716562686576" pbc="T T T"
Si       3.89045192       7.30621614       4.24703382
Si       0.68775397       0.40214654       0.48653208
Si       3.58798401       5.49651938       5.31058139
Si       3.29281815       3.63765884       4.32703042
Si       7.68736618       4.81946670       8.93499715
Si       3.77443483       3.02641437       7.75371840
Si       5.07388742       2.42153703       4.33366976
Si       3.49338948       5.46346491       3.17531778
Si       3.92638664       5.15800209       7.37227298
Si       2.63611994       2.50719210       9.49045557
Si       4.64706659       3.74033205       5.94962831
Si       3.71266676       5.58901759       9.42610174
Si       6.24639738       1.16159457       3.07519202
Si       2.51851083       3.96242618       6.32884460
Si       7.57251231       6.18416848       1.98833299
Si       2.27959948       1.56001379       1.30083912
16
Lattice="5.405553101810222 0.47295148547866783 0.49188899798437646 2.2886847476864114 6.760910301683208 -0.30624331688647904 1.2907524969817508 0.3397306605068688 10.004153376147805" Properties=species:S:1:pos:R:3 unique_starting_index=92 config_type=initial n_minim_iter=12 stress="-0.004579503093397765 -0.0022532282886863863 0.008140316566578983 -0.0022532282886863863 0.009170587656528702 0.0016154405432673201 0.008140316566578983 0.0016154405432673201 0.007192008701468967" pbc="T T T"
Si       3.85796205       7.32665167       4.25594098
Si       0.68803004       0.40889209       0.48213853
Si       3.57960436       5.50311100       5.30857826
Si       3.30591637       3.64259080       4.32628363
Si       7.69266292       4.81588619       8.94056375
Si       3.79726230       3.02228577       7.76033166
Si       5.07585887       2.40731526       4.34652706
Si       3.49106161       5.47612921       3.17078082
Si       3.92588008       5.16028316       7.37902298
Si       2.64849430       2.50803814       9.48335004
Si       4.65243700       3.74476765       5.96144119
Si       3.71364730       5.59131797       9.43925849
Si       6.24242545       1.15154679       3.08697690
Si       2.52986988       3.95949739       6.33011811
Si       7.55831940       6.18061495       1.99534947
Si       2.28374376       1.56428790       1.31400163
16
Lattice="5.4093749532126925 0.47407449627759396 0.4771404945842712 2.293124692979158 6.767418866820359 -0.31863439650152575 1.2667763794332847 0.3299298394126802 9.988500466967494" Properties=species:S:1:pos:R:3 unique_starting_index=92 config_type=initial n_minim_iter=13 stress="-0.0006698504551668872 -0.002589706546771676 -0.00014426618430250996 -0.002589706546771676 0.014491936400676872 -0.004394799795434666 -0.00014426618430250996 -0.004394799795434666 0.0020303475777347707" pbc="T T T"
Si       3.81673690       7.34187481       4.24654030
Si       0.68834307       0.41597732       0.47744015
Si       3.56143752       5.50082790       5.28097027
Si       3.31520048       3.64413136       4.30371553
Si       7.67512383       4.80719907       8.89767521
Si       3.79995004       3.01565960       7.74475202
Si       5.06967211       2.39379982       4.33712228
Si       3.49262218       5.48236043       3.14374422
Si       3.91315169       5.15777382       7.35673032
Si       2.63296387       2.49723643       9.46173643
Si       4.64655321       3.75244472       5.94317901
Si       3.69179364       5.58621986       9.42565620
Si       6.23236537       1.14915560       3.05087294
Si       2.53111499       3.94379643       6.30728104
Si       7.55926590       6.18381150       1.96264878
Si       2.28013493       1.57146006       1.31113196
16
Lattice="5.41856722060875 0.487340754573155 0.4599418550811391 2.316188507846268 6.7572691424287505 -0.32703211319088465 1.2376599215934987 0.33151710395845346 9.990298539775758" Properties=species:S:1:pos:R:3 unique_starting_index=92 config_type=initial n_minim_iter=14 stress="0.006516145263785519 0.007054807843562463 0.007713697366883633 0.007054807843562463 0.01372672802107788 -0.004942628545999391 0.007713697366883633 -0.004942628545999391 0.018028176836820085" pbc="T T T"
Si       3.75449885       7.35619604       4.25438967
Si       0.68816782       0.41956769       0.46578741
Si       3.54791483       5.50102067       5.26221618
Si       3.33943320       3.64120658       4.27801623
Si       7.68057800       4.79711357       8.85532851
Si       3.81410389       3.02211851       7.75573029
Si       5.07222472       2.38012221       4.34921928
Si       3.51354986       5.48375722       3.12570160
Si       3.90856250       5.16110567       7.36328790
Si       2.62766989       2.49145736       9.45721588
Si       4.66352993       3.76928851       5.93632445
Si       3.68130658       5.57971883       9.42237865
Si       6.22431216       1.16394880       3.01699828
Si       2.55065045       3.91460731       6.29303026
Si       7.57742274       6.19117004       1.93573895
Si       2.27392905       1.58593825       1.31250568
16
Lattice="5.434205045451134 0.477618040187633 0.43387101826705105 2.315205109413258 6.736402206190309 -0.3364147789600214 1.1934875764971093 0.33125625177795487 9.9814124936725" Properties=species:S:1:pos:R:3 unique_starting_index=92 config_type=initial n_minim_iter=15 stress="0.010612729585565738 0.001616952142893338 0.0037490371229773 0.001616952142893338 0.013562899314588603 -0.003114942660529752 0.0037490371229773 -0.003114942660529752 0.01857239962173545" pbc="T T T"
Si       3.66157016       7.35857272       4.25593577
Si       0.68210025       0.41394681       0.45298313
Si       3.50999681       5.48708409       5.24883332
Si       3.34626550       3.62305987       4.25125539
Si       7.66447390       4.76275338       8.79697268
Si       3.81565149       3.01556393       7.75100642
Si       5.07451416       2.34252259       4.35019573
Si       3.50958466       5.47003601       3.10479020
Si       3.87777802       5.14814567       7.34727677
Si       2.60026424       2.47483062       9.43691010
Si       4.65123645       3.76734258       5.91298194
Si       3.63713890       5.55825214       9.39871242
Si       6.21601911       1.15708301       2.97657213
Si       2.55444330       3.88333274       6.26639097
Si       7.57700148       6.16518262       1.89651083
Si       2.26718300       1.59057549       1.31463261
16
Lattice="5.437567477623055 0.4790059363471765 0.42010429214870754 2.321794945566965 6.7166749691036065 -0.34541652395359324 1.1687749867269517 0.32705664254072075 9.987748013339544" Properties=species:S:1:pos:R:3 unique_starting_index=92 config_type=initial n_minim_iter=16 stress="0.0035707987495790278 0.007567441665795255 0.0047120535602890815 0.007567441665795255 0.010653731517813752 -0.0021195841054750513 0.0047120535602890815 -0.0021195841054750513 0.02168779231516028" pbc="T T T"
Si       3.60126795       7.35293726       4.25872296
Si       0.67885806       0.41384257       0.44734885
Si       3.49252659       5.47687576       5.24477575
Si       3.35485650       3.60802804       4.23616329
Si       7.65567630       4.74046334       8.76889224
Si       3.82429300       3.01243225       7.75683304
Si       5.07424228       2.32235568       4.36353265
Si       3.51028338       5.45927988       3.09653112
Si       3.86807903       5.13425044       7.33802980
Si       2.58808163       2.45577537       9.43242387
Si       4.64902907       3.76339944       5.90741150
Si       3.61533336       5.53192595       9.39009458
Si       6.20780768       1.15877670       2.95712251
Si       2.56041105       3.85554338       6.25748552
Si       7.57621479       6.14926795       1.87239611
Si       2.26040572       1.59229418       1.32177709
16
Lattice="5.4376342942613904 0.458825078544989 0.420023622531723 2.299720105057836 6.689219930495039 -0.34933837343395585 1.1678026233140064 0.3164280671043579 9.995074616361924" Properties=species:S:1:pos:R:3 unique_starting_index=92 config_type=initial n_minim_iter=17 stress="-0.0007910022083054402 0.0020320976653591914 -9.63475841245893e-05 0.0020320976653591914 -0.009315189416966045 -0.005451261721594283 -9.63475841245893e-05 -0.005451261721594283 -0.0026468407866387573" pbc="T T T"
Si       3.56638355       7.31394185       4.25602043
Si       0.67040857       0.40168499       0.45394786
Si       3.47774274       5.44980640       5.25454929
Si       3.33990303       3.58697665       4.24168957
Si       7.64795524       4.69473346       8.76475351
Si       3.82685445       3.00292976       7.76183312
Si       5.06761964       2.30306452       4.37879841
Si       3.48013792       5.43638739       3.11162330
Si       3.86035670       5.10444631       7.32279217
Si       2.58899631       2.42203662       9.43032545
Si       4.63838518       3.73005047       5.90638425
Si       3.59750243       5.49010452       9.37623461
Si       6.20721837       1.13257579       2.97391729
Si       2.54522178       3.83018610       6.25776966
Si       7.55718671       6.10056591       1.86397452
Si       2.25317056       1.57874012       1.32233074
16
Lattice="5.433209818889851 0.4320757867941886 0.4175855572583582 2.264655251771649 6.6836440305524585 -0.340810907450238 1.1593205109581264 0.32549629069917596 10.00171943195712" Properties=species:S:1:pos:R:3 unique_starting_index=92 config_type=initial n_minim_iter=18 stress="-0.0004623315116311956 -0.0005903894357470071 0.001282653155619857 -0.0005903894357470071 -0.004373859620606764 0.0008840932857312007 0.001282653155619857 0.0008840932857312007 -0.0027535393381865675" pbc="T T T"
Si       3.49581187       7.31344995       4.27485081
Si       0.66391112       0.39819858       0.46228204
Si       3.44612783       5.44076958       5.26653744
Si       3.32100412       3.58655492       4.24770466
Si       7.61492215       4.65988133       8.76636107
Si       3.82673469       3.01454876       7.77253291
Si       5.04820038       2.28287527       4.39193052
Si       3.43518972       5.44129116       3.12543058
Si       3.83624463       5.11123145       7.32754459
Si       2.58222442       2.42255576       9.41986029
Si       4.62231019       3.72126310       5.91489296
Si       3.56539567       5.48343904       9.38012536
Si       6.18975427       1.11057697       2.98147206
Si       2.52214858       3.81381541       6.26908595
Si       7.52738117       6.06214639       1.86067232
Si       2.23517271       1.57000966       1.32622504
16
Lattice="5.432586986269756 0.4161942031926345 0.420546307745065 2.2440672808339484 6.687747978428829 -0.33928706976205286 1.1635274456978664 0.3228272272553913 10.006726078745242" Properties=species:S:1:pos:R:3 unique_starting_index=92 config_type=initial n_minim_iter=19 stress="0.0018488682076241174 -0.003838885665520164 0.004215645965793107 -0.003838885665520164 0.00317447405079171 0.003465067274240013 0.004215645965793107 0.003465067274240013 -0.0031772062269367625" pbc="T T T"
Si       3.47389002       7.31033706       4.28179459
Si       0.66326993       0.40017991       0.46726508
Si       3.43650763       5.44089102       5.27335090
Si       3.31038549       3.58301147       4.25295699
Si       7.60627930       4.63665099       8.77054925
Si       3.83004265       3.02276276       7.77951305
Si       5.03385799       2.27798969       4.39454374
Si       3.40550299       5.44667382       3.13517528
Si       3.83065089       5.11327947       7.32895268
Si       2.58548854       2.41088367       9.41633244
Si       4.61145194       3.71425980       5.92062600
Si       3.55901240       5.48102687       9.38354872
Si       6.18647889       1.09577452       2.99530913
Si       2.51558004       3.80804674       6.27723669
Si       7.51556359       6.03726488       1.85886513
Si       2.22713797       1.56238614       1.32502282
16
Lattice="5.434647293577034 0.4014696388875454 0.4132794328717858 2.2280454142161843 6.683733875081443 -0.34477069491400036 1.1496094107471888 0.31663649447281716 10.014775211473118" Properties=species:S:1:pos:R:3 unique_starting_index=92 config_type=initial n_minim_iter=20 stress="-0.006435645608361972 0.0020825457390867843 0.002770001783112255 0.0020825457390867843 0.0020572300181742336 -0.0012073456490626158 0.002770001783112255 -0.0012073456490626158 -0.0007088776483277909" pbc="T T T"
Si       3.41109755       7.30643908       4.28611312
Si       0.65721371       0.40155984       0.46586848
Si       3.41509656       5.42740132       5.27109909
Si       3.30703875       3.57612707       4.25053576
Si       7.59616277       4.60246691       8.75697440
Si       3.83632640       3.03173526       7.79306656
Si       5.01063119       2.26470688       4.40102043
Si       3.37521064       5.44689404       3.13845242
Si       3.81248648       5.10826177       7.32834197
Si       2.58406816       2.38650341       9.41069053
Si       4.60124494       3.70862531       5.91940852
Si       3.53944489       5.46701410       9.38585999
Si       6.17500970       1.08359052       2.99384804
Si       2.51129991       3.78518967       6.27465772
Si       7.50652154       6.00228096       1.83646474
Si       2.21621936       1.56184774       1.32218110
16
Lattice="5.439272302881076 0.38244341145161737 0.39760240509586897 2.2085578706523123 6.679825707760968 -0.35301812715891734 1.1221366211997834 0.3095188447355496 10.005628580230328" Properties=species:S:1:pos:R:3 unique_starting_index=92 config_type=initial n_minim_iter=21 stress="-0.009168841592704003 0.0034442790679061128 -8.901594195898824e-05 0.0034442790679061128 0.0002732718461071202 0.0013830970919893304 -8.901594195898824e-05 0.0013830970919893304 0.00031682391437084313" pbc="T T T"
Si       3.33854992       7.29551219       4.27937652
Si       0.64377130       0.39863443       0.46610649
Si       3.38549573       5.42127122       5.25447178
Si       3.29229386       3.56355885       4.23118008
Si       7.57792394       4.56540868       8.72536809
Si       3.83490278       3.03563948       7.79394709
Si       4.97937241       2.24680568       4.38600441
Si       3.33378523       5.44361747       3.12900608
Si       3.78025226       5.10280030       7.31231359
Si       2.57151466       2.35959339       9.38400565
Si       4.58462765       3.70634007       5.90585020
Si       3.50781791       5.45340571       9.36763500
Si       6.15953698       1.06520999       2.97190031
Si       2.49833492       3.76136281       6.25696288
Si       7.50021254       5.96342360       1.80500670
Si       2.20597636       1.56248062       1.31854623
