24
Lattice="6.861129490810031 -2.1625929467852525 0.12189925704964566 0.5175594679180011 9.003697330956443 -0.09894796540799328 1.7235070558427783 2.7461379060107514 8.86508055983064" Properties=species:S:1:pos:R:3 unique_starting_index=94 config_type=initial n_minim_iter=1 energy=-3911.543354549054 free_energy=-3911.543354549054 pbc="T T T"
Si       7.15626615       5.66194887       7.30892576
Si       0.13279110       3.29327729       3.42457842
Si       1.93885600       7.60105148      -0.54928370
Si       5.11066852      10.08823048       6.62292991
Si       5.11290120       1.90252919       1.15274978
Si       4.97333227       4.63082331       8.98837936
Si       4.93661091       0.78077029       2.94116964
Si       3.67478021       0.18965303       1.31849554
Si       6.87952826       0.58707657       5.63236480
Si       7.36621382       7.40009454       5.48228034
Si       4.03233307       6.35400615       8.15711656
Si       5.29964107       1.74299682       4.81397392
Si       2.78798460       6.10214938       2.86746899
Si       1.82644654       5.97232142       8.06641486
Si       5.67678907       3.87173933       4.81680180
Si       5.19781058       4.66515711       6.88718076
Si       4.63418071       2.79913093       7.97469886
Si       1.88697013       5.88274559       0.77893054
Si       7.83425169       2.90073859       2.65100799
Si       3.21848666       4.39101449       7.82247290
Si       7.11797405       4.79136657       3.16440908
Si       1.66030167       0.41354876       0.69160294
Si       4.31976825       8.40734834       7.65385943
Si       5.74859077       2.78188112       2.99843534
24
Lattice="6.877558275061654 -2.175442842283992 0.12371621912293895 0.5106363441587227 9.031400001980744 -0.09864798090588202 1.7267259453251869 2.753674153772767 8.892543190810622" Properties=species:S:1:pos:R:3 unique_starting_index=94 config_type=initial n_minim_iter=2 stress="0.007042855572358659 0.00565984627807859 -0.0003974310667505193 0.00565984627807859 0.009736106321085802 -0.0009137664511410443 -0.0003974310667505193 -0.0009137664511410443 0.007178874974992061" pbc="T T T"
Si       7.16798568       5.67375228       7.33293275
Si       0.13086941       3.30347993       3.43547397
Si       1.93626079       7.62280991      -0.55010344
Si       5.11436079      10.11555021       6.64402423
Si       5.12271760       1.90425159       1.15743183
Si       4.98168541       4.64174979       9.01749750
Si       4.94681532       0.77887428       2.95150540
Si       3.68300283       0.18676360       1.32375589
Si       6.89478555       0.58300182       5.65109427
Si       7.37635506       7.41697165       5.50103987
Si       4.03683339       6.37051239       8.18310635
Si       5.31014855       1.74390387       4.82982659
Si       2.78918348       6.11909674       2.87728690
Si       1.82650903       5.99006111       8.09165639
Si       5.68640029       3.87913240       4.83317225
Si       5.20636070       4.67560707       6.90882981
Si       4.64356120       2.80408176       8.00024610
Si       1.88585361       5.89955302       0.78205104
Si       7.84909649       2.90272321       2.66087361
Si       3.22316656       4.40259116       7.84683177
Si       7.12930826       4.80041227       3.17598783
Si       1.66323062       0.41315089       0.69436901
Si       4.32314701       8.43053249       7.67854011
Si       5.75869869       2.78557112       3.00891119
24
Lattice="6.881588186393642 -2.20859212896978 0.12666953809372533 0.46321613758227353 9.018502042741318 -0.09216318397221457 1.7162953579628932 2.7477177354688296 8.89893191580798" Properties=species:S:1:pos:R:3 unique_starting_index=94 config_type=initial n_minim_iter=3 stress="0.00014014489776656154 -0.013204281393292808 0.002584633404020299 -0.013204281393292808 -0.0006922966605473945 0.0012086455270714767 0.002584633404020299 0.0012086455270714767 0.005011563503916493" pbc="T T T"
Si       7.13555908       5.63554842       7.34329915
Si       0.11502245       3.30062020       3.44139446
Si       1.89636848       7.60186440      -0.54391476
Si       5.06322815      10.08215869       6.65204094
Si       5.11063107       1.87780710       1.16233987
Si       4.95759699       4.61805006       9.02930219
Si       4.93803082       0.75437101       2.95748105
Si       3.68091978       0.16777473       1.32909187
Si       6.88718520       0.55020574       5.65767339
Si       7.33285025       7.37400215       5.51317803
Si       4.00347136       6.34543055       8.19310950
Si       5.29756647       1.71665333       4.83556704
Si       2.75605815       6.10059044       2.88524689
Si       1.79763393       5.97984926       8.09989359
Si       5.66307836       3.84789431       4.84166188
Si       5.18180806       4.64877686       6.91423486
Si       4.63053187       2.78175714       8.00916825
Si       1.85346308       5.88380077       0.78723431
Si       7.82928626       2.85889855       2.66815708
Si       3.20165182       4.38937321       7.85323150
Si       7.09777911       4.76157841       3.18571780
Si       1.65773554       0.40279207       0.69737255
Si       4.27944798       8.40673465       7.69061742
Si       5.73906434       2.75398606       3.01649577
24
Lattice="6.871326145280394 -2.198769947869965 0.11837512878949963 0.4769211786025863 9.023298256703725 -0.08981992515942343 1.709355316554217 2.754293064812198 8.879178231271563" Properties=species:S:1:pos:R:3 unique_starting_index=94 config_type=initial n_minim_iter=4 stress="0.0014659500674621038 -0.0033895621048176394 0.0007963455468327018 -0.0033895621048176394 -0.001829739184313473 -0.0020279540738376476 0.0007963455468327018 -0.0020279540738376476 -0.008251138604911088" pbc="T T T"
Si       7.12941412       5.65263149       7.31874431
Si       0.11325301       3.30029584       3.44299950
Si       1.91133753       7.59889978      -0.54216564
Si       5.07559203      10.09793792       6.62028770
Si       5.11559324       1.89238259       1.15424036
Si       4.94903486       4.63462312       9.01130377
Si       4.92659364       0.76296505       2.95046198
Si       3.68128950       0.17267865       1.32896159
Si       6.87130500       0.56295645       5.63667607
Si       7.32877845       7.39011000       5.49676757
Si       3.99726460       6.34852600       8.17372922
Si       5.28803756       1.72271741       4.81766770
Si       2.76080377       6.11273794       2.88143264
Si       1.79437606       5.98752149       8.08194652
Si       5.65753341       3.85757621       4.82725107
Si       5.17898100       4.66342738       6.88501870
Si       4.62808600       2.79335012       7.99015969
Si       1.85922659       5.89018581       0.78368429
Si       7.82781629       2.86702034       2.65236928
Si       3.19496510       4.40874957       7.82947937
Si       7.09134213       4.78028108       3.17494212
Si       1.64987773       0.40021859       0.69855907
Si       4.27861827       8.42824197       7.67508683
Si       5.73163411       2.76392718       3.00817197
24
Lattice="6.850644465441164 -2.189312095289744 0.11196843644607939 0.48432951887577164 9.012798907949831 -0.07710309207561626 1.702744921057258 2.7657377733326682 8.909012113006932" Properties=species:S:1:pos:R:3 unique_starting_index=94 config_type=initial n_minim_iter=5 stress="-0.009390763011551072 0.0006061269196466477 -0.0016176132764332942 0.0006061269196466477 -0.007352002119391288 0.0048580821138251625 -0.0016176132764332942 0.0048580821138251625 0.0054085750885195785" pbc="T T T"
Si       7.11181543       5.66400215       7.34412261
Si       0.11336777       3.30078185       3.46028097
Si       1.91593573       7.58913831      -0.53369967
Si       5.07032756      10.10092168       6.65030063
Si       5.10567707       1.89835929       1.15747002
Si       4.93586904       4.64611250       9.04270380
Si       4.91127120       0.77120864       2.95949764
Si       3.67104935       0.17819654       1.33201341
Si       6.84910714       0.57667152       5.65107314
Si       7.31222749       7.39639262       5.52071037
Si       3.98742368       6.35690670       8.20537027
Si       5.27270612       1.73259772       4.82933873
Si       2.75853310       6.11425044       2.89904339
Si       1.78942062       5.99450944       8.11391032
Si       5.64306030       3.86473575       4.84535438
Si       5.16629108       4.67372798       6.90859011
Si       4.61539160       2.80617717       8.01630552
Si       1.85902295       5.88612460       0.79403543
Si       7.80775579       2.87225168       2.66000333
Si       3.18671078       4.41857725       7.85629462
Si       7.07387235       4.78757385       3.18857722
Si       1.64393610       0.40062047       0.70125031
Si       4.27122252       8.43563094       7.70827162
Si       5.71792855       2.77031204       3.01867065
24
Lattice="6.838332931515215 -2.181548939007107 0.11437491642806231 0.49225888811951657 9.008494322190415 -0.08060150312715342 1.704820103825077 2.7623711966274165 8.908312259108179" Properties=species:S:1:pos:R:3 unique_starting_index=94 config_type=initial n_minim_iter=6 stress="-0.001920368722872868 0.0013356381260472808 0.0013102666390518633 0.0013356381260472808 -0.006143865076921796 0.00024276664611394845 0.0013102666390518633 0.00024276664611394845 -0.001817320889009675" pbc="T T T"
Si       7.10846132       5.66681132       7.33850073
Si       0.11407290       3.29466858       3.46708087
Si       1.92858131       7.58273882      -0.53646899
Si       5.08179951      10.10059413       6.64267763
Si       5.11059325       1.90760583       1.15766631
Si       4.93753917       4.63823242       9.03888515
Si       4.90062104       0.77490860       2.96576904
Si       3.66629308       0.18190291       1.33489993
Si       6.83676134       0.57747637       5.65410443
Si       7.30564587       7.39711086       5.52093025
Si       3.98609088       6.35867319       8.20253880
Si       5.26598448       1.73523310       4.81832544
Si       2.76458663       6.12039642       2.90272987
Si       1.78622444       5.99336273       8.11158806
Si       5.63793318       3.86198385       4.84693163
Si       5.16543846       4.67621815       6.90676203
Si       4.61741307       2.80513550       8.01712656
Si       1.86046751       5.88413837       0.79371105
Si       7.79799464       2.86679304       2.65856576
Si       3.19022292       4.41369893       7.84951704
Si       7.06383363       4.79571481       3.19089197
Si       1.63646800       0.39519481       0.70342215
Si       4.27529079       8.43833672       7.70557034
Si       5.71462681       2.77363295       3.02086383
24
Lattice="6.8122750722163525 -2.1815593722547932 0.09529156472045106 0.496496141339648 9.027617094206747 -0.07575932362883155 1.6777678508305955 2.775285338186544 8.903570938370592" Properties=species:S:1:pos:R:3 unique_starting_index=94 config_type=initial n_minim_iter=7 stress="-0.011328859195818974 -0.002000008529416718 -0.006763258883171381 -0.002000008529416718 0.006871699786406373 -0.0003340817989308324 -0.006763258883171381 -0.0003340817989308324 -0.00523262847190645" pbc="T T T"
Si       7.06822916       5.68983070       7.31804076
Si       0.10570399       3.30128583       3.47343262
Si       1.93248506       7.60059711      -0.53500955
Si       5.05912940      10.13255408       6.63284768
Si       5.09697242       1.91865746       1.14618070
Si       4.90294231       4.65638273       9.02271580
Si       4.87198127       0.78202485       2.95355660
Si       3.64973938       0.18539781       1.32701252
Si       6.79529390       0.58385297       5.63831102
Si       7.26713366       7.42073297       5.50712678
Si       3.95328160       6.38346453       8.19405733
Si       5.23412786       1.74585217       4.79980420
Si       2.74929911       6.14050212       2.90224118
Si       1.75812420       6.01356459       8.10866650
Si       5.60693655       3.87402871       4.83539503
Si       5.13264225       4.69610041       6.89675326
Si       4.58552850       2.81642913       8.00379727
Si       1.85436073       5.89718368       0.79452863
Si       7.77118636       2.87797974       2.63913588
Si       3.16223343       4.42902399       7.83918788
Si       7.03096831       4.81326120       3.17631652
Si       1.62547450       0.39321012       0.69941412
Si       4.24782201       8.46378724       7.69663188
Si       5.68688076       2.78735486       3.00713709
24
Lattice="6.812000857306018 -2.1565810074036227 0.09639634483317641 0.5187462011302179 8.995197261492322 -0.06037813300820315 1.6914829526465276 2.7843133668838913 8.930956253439591" Properties=species:S:1:pos:R:3 unique_starting_index=94 config_type=initial n_minim_iter=8 stress="0.0030501500454967164 8.9945978371128e-05 -0.003361607348593474 8.9945978371128e-05 -0.004549753523698796 0.0016826927829765564 -0.003361607348593474 0.0016826927829765564 -0.002809480742383812" pbc="T T T"
Si       7.09222428       5.70111620       7.34304280
Si       0.11485067       3.29120926       3.49529212
Si       1.95886226       7.57826123      -0.52003038
Si       5.10119291      10.12334027       6.66693725
Si       5.11639488       1.92995195       1.15724062
Si       4.92890995       4.66586367       9.04826972
Si       4.87332923       0.79711996       2.96586706
Si       3.65299201       0.19501475       1.33477722
Si       6.80069637       0.60216681       5.66313835
Si       7.28884525       7.41977812       5.54014510
Si       3.97412725       6.38807241       8.22661660
Si       5.24126316       1.76133786       4.81154796
Si       2.76456082       6.13508173       2.92671981
Si       1.77230043       6.00996769       8.13892929
Si       5.62192248       3.87663354       4.85985846
Si       5.15265415       4.70643405       6.92801670
Si       4.60644291       2.82615373       8.02854866
Si       1.86877468       5.87942297       0.80998721
Si       7.79565626       2.88954822       2.65521843
Si       3.17999384       4.43298007       7.86292475
Si       7.04604953       4.81757452       3.19823391
Si       1.62176895       0.39021432       0.70218477
Si       4.28010746       8.45530949       7.72952838
Si       5.69677063       2.80039065       3.02239980
24
Lattice="6.782609905888348 -2.1487729656190173 0.12159606401791585 0.52831048137349 9.000879942446572 -0.06641771558059653 1.7183101968916807 2.7805713844614157 8.947579870643189" Properties=species:S:1:pos:R:3 unique_starting_index=94 config_type=initial n_minim_iter=9 stress="-0.006046305990719878 0.0005250115103350045 0.0038973064520817194 0.0005250115103350045 -0.001146536172833764 -0.003336341711150628 0.0038973064520817194 -0.003336341711150628 -0.0011738403083324472" pbc="T T T"
Si       7.09634354       5.70946655       7.36784157
Si       0.13053346       3.28822696       3.50254449
Si       1.96228696       7.58647718      -0.51863111
Si       5.12301508      10.13214208       6.68423184
Si       5.10790311       1.93822691       1.17590206
Si       4.95088004       4.66735500       9.07007812
Si       4.86118435       0.80296702       2.98513218
Si       3.64249549       0.19732045       1.35007727
Si       6.79040417       0.60231871       5.69930512
Si       7.28465876       7.42795496       5.56850704
Si       3.99148016       6.39213020       8.24612404
Si       5.23500260       1.76497560       4.83311927
Si       2.76939164       6.14414004       2.93902427
Si       1.79630294       6.00854211       8.15138366
Si       5.62014884       3.87887319       4.88395470
Si       5.16229873       4.71257120       6.95303662
Si       4.62395248       2.82590889       8.05245498
Si       1.87137519       5.88315520       0.81201856
Si       7.78007603       2.89856429       2.68513005
Si       3.19890616       4.43375489       7.87941720
Si       7.03299560       4.82463183       3.22330612
Si       1.61457929       0.38836512       0.70705754
Si       4.30333991       8.45862473       7.74647423
Si       5.68915023       2.81159320       3.04240148
24
Lattice="6.773864766580611 -2.139317894541802 0.10958863722555119 0.5375138871748305 8.994446395945243 -0.02758501147453763 1.7162247032182074 2.818867473259582 8.960488133301638" Properties=species:S:1:pos:R:3 unique_starting_index=94 config_type=initial n_minim_iter=10 stress="0.0020055557141252242 0.0011561184488244804 0.003939612397949649 0.0011561184488244804 0.006578864934695364 0.008132954162927182 0.003939612397949649 0.008132954162927182 -0.004875636229811012" pbc="T T T"
Si       7.09279127       5.74971202       7.37628837
Si       0.13463605       3.29774665       3.52765844
Si       1.97261814       7.58151597      -0.48039908
Si       5.14182730      10.16036868       6.72684977
Si       5.11431629       1.94824999       1.18599094
Si       4.96295038       4.70594966       9.08289929
Si       4.84618916       0.82609256       2.98047683
Si       3.63612240       0.20556959       1.35069149
Si       6.77311827       0.62245044       5.71447145
Si       7.27397440       7.45075090       5.60315455
Si       3.98368508       6.42966234       8.27179035
Si       5.21989304       1.78840573       4.83594612
Si       2.76883849       6.16865438       2.97539645
Si       1.78595501       6.04228639       8.17763275
Si       5.61519000       3.89510345       4.90167909
Si       5.16241387       4.75137261       6.97207554
Si       4.63562880       2.86613442       8.06221449
Si       1.87583981       5.88119406       0.83198960
Si       7.77734167       2.91312767       2.70239090
Si       3.19905211       4.46902571       7.89575843
Si       7.02471915       4.83408016       3.24246261
Si       1.60478735       0.38653597       0.70349694
Si       4.31513652       8.48879859       7.77764216
Si       5.68819120       2.84091041       3.04801541
24
Lattice="6.770844424990503 -2.1343030900248334 0.1021428051023388 0.5393531397245388 8.979021290677226 -0.041139221796428906 1.702388819512055 2.802069233861221 8.970003357930105" Properties=species:S:1:pos:R:3 unique_starting_index=94 config_type=initial n_minim_iter=11 stress="0.0023782595802631892 0.00011062535260994449 -0.001423456402325159 0.00011062535260994449 -0.0007505025999399888 -0.002398145612048865 -0.001423456402325159 -0.002398145612048865 0.00032118649507815013" pbc="T T T"
Si       7.08002255       5.73302373       7.36489500
Si       0.13049552       3.28637768       3.53280059
Si       1.97610275       7.56948614      -0.49347699
Si       5.13708614      10.13505932       6.71774240
Si       5.11417065       1.94454942       1.17835729
Si       4.95342525       4.68601211       9.08277411
Si       4.83679408       0.82403728       2.97518644
Si       3.63150301       0.20314651       1.34738995
Si       6.75831043       0.61120173       5.71844338
Si       7.26086847       7.43024719       5.59289065
Si       3.96811643       6.40838504       8.27082215
Si       5.20770603       1.77884447       4.83207538
Si       2.76320647       6.15927791       2.97133903
Si       1.76991527       6.02135032       8.18097752
Si       5.60590353       3.88003836       4.89674786
Si       5.15200100       4.73723756       6.96843918
Si       4.62757764       2.85186129       8.06482292
Si       1.87543550       5.86893881       0.82025249
Si       7.77252711       2.90509438       2.69371260
Si       3.18755278       4.45172768       7.89827044
Si       7.01625642       4.81946470       3.23054285
Si       1.60060027       0.38353649       0.69988061
Si       4.30692785       8.46450453       7.77144845
Si       5.68249631       2.83725154       3.03909952
24
Lattice="6.739334917685121 -2.1177700179161603 0.09948848049567512 0.5600386187255307 8.984581110718343 -0.017256787457392734 1.7064951384084266 2.8312232031685394 8.990008558609611" Properties=species:S:1:pos:R:3 unique_starting_index=94 config_type=initial n_minim_iter=12 stress="0.006697731710699329 0.0037219942351775174 -0.0007365168295129019 0.0037219942351775174 0.006578275497217468 -0.000890161875927007 -0.0007365168295129019 -0.000890161875927007 0.012912207725291983" pbc="T T T"
Si       7.06891571       5.78402902       7.36026844
Si       0.14072412       3.29683111       3.56880119
Si       2.00339090       7.57450599      -0.47394101
Si       5.17166449      10.16895821       6.77324180
Si       5.11418112       1.96032341       1.19165073
Si       4.97617380       4.73253162       9.10113656
Si       4.80990988       0.86447715       2.98008134
Si       3.60503452       0.20505222       1.34650028
Si       6.71049002       0.62786320       5.75663189
Si       7.23369814       7.45551091       5.63131227
Si       3.95793880       6.44096020       8.29878035
Si       5.18206935       1.79538850       4.82674343
Si       2.76117362       6.20475613       3.01188983
Si       1.76119950       6.05086031       8.20821045
Si       5.59429514       3.89655879       4.91712603
Si       5.15426112       4.78578407       6.97682919
Si       4.64197615       2.88162893       8.08206060
Si       1.88520722       5.86727531       0.82596666
Si       7.76463157       2.92751979       2.72087841
Si       3.19658442       4.48504503       7.92637176
Si       6.98933837       4.82869468       3.25090387
Si       1.58612201       0.38932103       0.69130357
Si       4.33424386       8.50745776       7.80130529
Si       5.66612032       2.87981789       3.05139471
24
Lattice="6.725749878739468 -2.1140887161212185 0.10148443802119907 0.565537609019537 8.991099090635661 0.0014735859416730702 1.7136806924837182 2.8523659901629856 8.996669807080316" Properties=species:S:1:pos:R:3 unique_starting_index=94 config_type=initial n_minim_iter=13 stress="0.00678311476255313 0.0024277493309740102 0.0029631208528178897 0.0024277493309740102 0.010513855414311725 0.0025263504298354655 0.0029631208528178897 0.0025263504298354655 0.008846399409982988" pbc="T T T"
Si       7.06528145       5.81882225       7.34539158
Si       0.14670533       3.31172590       3.59599617
Si       2.02422387       7.58177526      -0.46412002
Si       5.20629501      10.19273734       6.80461554
Si       5.12483813       1.96971072       1.19793887
Si       4.99339866       4.75586481       9.09595610
Si       4.79061770       0.88857542       2.98573591
Si       3.59191139       0.20353427       1.34838924
Si       6.67349997       0.63483455       5.78697271
Si       7.21135289       7.46332564       5.65899336
Si       3.95303550       6.46657300       8.31512430
Si       5.16922017       1.79519894       4.82946402
Si       2.75417164       6.24353126       3.04314456
Si       1.75817619       6.06707636       8.22082706
Si       5.59083430       3.90743164       4.93841446
Si       5.16050812       4.81955239       6.97440001
Si       4.65460234       2.91429362       8.10536378
Si       1.88824706       5.85852330       0.83256006
Si       7.77104201       2.93175814       2.74211345
Si       3.20733782       4.50984096       7.94885045
Si       6.96633304       4.82713548       3.26754780
Si       1.57892504       0.39894285       0.67743943
Si       4.35552529       8.52925575       7.82440645
Si       5.65980839       2.89854087       3.05365238
24
Lattice="6.743168868534882 -2.1170718371543047 0.08360812480115154 0.5615311816476236 8.986660573648612 0.016362770146644546 1.698186706423528 2.8656508296181187 8.983467741836026" Properties=species:S:1:pos:R:3 unique_starting_index=94 config_type=initial n_minim_iter=14 stress="0.006476987415713679 0.0005907958267680018 0.001820046462143361 0.0005907958267680018 0.01364279787119828 0.006137793463134314 0.001820046462143361 0.006137793463134314 0.004777370889563305" pbc="T T T"
Si       7.06326775       5.83573012       7.29635786
Si       0.14085336       3.32766373       3.61341230
Si       2.04635430       7.57700501      -0.46556572
Si       5.23255596      10.20260172       6.80894369
Si       5.14782596       1.97128958       1.17128538
Si       5.00145042       4.77337219       9.07509597
Si       4.77507705       0.89542031       2.97184440
Si       3.59923880       0.21077562       1.33995659
Si       6.64643641       0.63151247       5.78748219
Si       7.19334341       7.45179389       5.65081698
Si       3.93975081       6.48619995       8.30855965
Si       5.16092331       1.79656458       4.81403508
Si       2.74014856       6.26970289       3.05683836
Si       1.73921089       6.06615788       8.21322313
Si       5.59165391       3.89726512       4.92726265
Si       5.15877861       4.83578620       6.94329058
Si       4.65393874       2.91983262       8.09122592
Si       1.88906722       5.83753458       0.83425200
Si       7.78850303       2.92032283       2.73131780
Si       3.19372471       4.52705620       7.94206965
Si       6.95306904       4.81065211       3.25590867
Si       1.57471470       0.40644474       0.66636130
Si       4.35820802       8.52553343       7.82696592
Si       5.67815324       2.89710019       3.04644450
24
Lattice="6.760745221576096 -2.139459141159151 0.07504890670629949 0.534229172281592 8.988671065307942 0.01673777267763769 1.6817207513937158 2.8622170054456704 8.971041678531824" Properties=species:S:1:pos:R:3 unique_starting_index=94 config_type=initial n_minim_iter=15 stress="0.004916870796115258 -0.00490003135467504 -0.005034077536930187 -0.00490003135467504 0.0019946892749068486 -0.005104503030112854 -0.005034077536930187 -0.005104503030112854 0.005433957320949281" pbc="T T T"
Si       7.04943759       5.82871629       7.24568800
Si       0.12718470       3.34299910       3.63278558
Si       2.03718964       7.55576609      -0.47741622
Si       5.23299286      10.18582816       6.81268949
Si       5.16679475       1.95973771       1.15162240
Si       4.99021876       4.77221389       9.04373974
Si       4.75738372       0.88947384       2.96042124
Si       3.60256766       0.21476931       1.32889337
Si       6.61690439       0.60038312       5.79382025
Si       7.15433614       7.42143560       5.63404655
Si       3.92205660       6.48614696       8.30492770
Si       5.14743118       1.78806672       4.79931373
Si       2.69682104       6.28270595       3.05861916
Si       1.71189466       6.05376265       8.20083021
Si       5.58275184       3.86518631       4.91555298
Si       5.13977594       4.82712940       6.92254990
Si       4.65795085       2.91988032       8.07505320
Si       1.87388522       5.81330595       0.83238483
Si       7.79908940       2.89841002       2.71903009
Si       3.17800836       4.53110177       7.91920477
Si       6.91932960       4.77240053       3.24145459
Si       1.57383567       0.40060880       0.67561728
Si       4.34610074       8.51513026       7.82293972
Si       5.69802502       2.86033383       3.03997343
24
Lattice="6.775382812495937 -2.1284783491729464 0.09514478628281119 0.5522903536875828 8.995765481726895 -0.017082487635994858 1.7071724944176652 2.832614717304678 8.929113182727605" Properties=species:S:1:pos:R:3 unique_starting_index=94 config_type=initial n_minim_iter=16 stress="-0.013304375770990135 0.0010031049804104454 0.0009007974693544409 0.0010031049804104454 -0.007764520445393874 -0.0054668899932013935 0.0009007974693544409 -0.0054668899932013935 -0.016683174577946647" pbc="T T T"
Si       7.09658054       5.83046528       7.17716188
Si       0.14186015       3.34104592       3.63651125
Si       2.06520249       7.56950482      -0.49958812
Si       5.30621818      10.16569059       6.78001955
Si       5.19643866       1.96928431       1.14945058
Si       5.02931417       4.77197113       9.00579121
Si       4.76695688       0.90680769       2.95152356
Si       3.61281716       0.24289231       1.31305632
Si       6.61510209       0.57775521       5.79555144
Si       7.17722861       7.41659206       5.58715936
Si       3.97092387       6.46764226       8.27350782
Si       5.15596509       1.77661738       4.79834044
Si       2.70000859       6.30411758       3.03378176
Si       1.73954858       6.02692603       8.14935166
Si       5.61552560       3.84886923       4.88929955
Si       5.16463474       4.81260964       6.87433072
Si       4.67711295       2.90496718       8.04784029
Si       1.89534057       5.80057662       0.81000012
Si       7.83448089       2.90698259       2.70641078
Si       3.22439827       4.51443278       7.86340239
Si       6.92250455       4.75107059       3.21537775
Si       1.59985949       0.38101861       0.66720712
Si       4.41269339       8.50205967       7.76917124
Si       5.74388494       2.82886453       3.01680145
24
Lattice="6.780379444481413 -2.13376781886038 0.0944222579743783 0.5438963605616222 8.990588428509673 -0.005358234059898942 1.7072166754046327 2.8415801316863636 8.984620133370793" Properties=species:S:1:pos:R:3 unique_starting_index=94 config_type=initial n_minim_iter=17 stress="-0.003219234700235183 -0.0018945266847700897 0.005649910235757477 -0.0018945266847700897 -0.0020828410117416946 -0.005607547882664916 0.005649910235757477 -0.005607547882664916 -0.006780633071648698" pbc="T T T"
Si       7.10039528       5.84417934       7.19405361
Si       0.14406209       3.34254700       3.70186138
Si       2.06949269       7.56555231      -0.48450956
Si       5.33205764      10.15858450       6.85372863
Si       5.19544328       1.95826467       1.14992697
Si       5.04398505       4.78398308       9.05227808
Si       4.76357449       0.93151011       2.97279030
Si       3.61713732       0.24719992       1.31124302
Si       6.58604953       0.56430451       5.84226430
Si       7.15343000       7.41587993       5.62192943
Si       3.96313084       6.48152757       8.34048988
Si       5.13976151       1.75886741       4.83611773
Si       2.67732708       6.33302165       3.07197627
Si       1.73967051       6.02426850       8.20106029
Si       5.61796696       3.83561029       4.90873388
Si       5.15578755       4.81630565       6.91978647
Si       4.67605917       2.92462757       8.10000868
Si       1.89875983       5.78696979       0.80968214
Si       7.84973611       2.88843681       2.72751326
Si       3.23971123       4.52653510       7.91856829
Si       6.88825731       4.72534981       3.23585890
Si       1.60023567       0.37149462       0.65719508
Si       4.43561277       8.50284464       7.82478542
Si       5.74880771       2.82631772       3.05511068
24
Lattice="6.790810250949091 -2.1361061818431804 0.0778406974038736 0.5366829520357512 8.975204056130757 0.012749805334411377 1.6910812771012271 2.8545657600316305 9.012092954375106" Properties=species:S:1:pos:R:3 unique_starting_index=94 config_type=initial n_minim_iter=18 stress="0.004856675202211315 -0.001479451270067196 0.005456505235020287 -0.001479451270067196 -0.0003701743121093643 -0.0018386437201328295 0.005456505235020287 -0.0018386437201328295 0.0006197855925557059" pbc="T T T"
Si       7.09566855       5.85192615       7.19596264
Si       0.13790606       3.34307834       3.74250605
Si       2.07384574       7.53996158      -0.47286781
Si       5.33215861      10.16060883       6.89805548
Si       5.19637409       1.94934597       1.15060618
Si       5.03818777       4.79498751       9.06949455
Si       4.76047558       0.94352607       2.97030304
Si       3.62691566       0.24487020       1.31011325
Si       6.57380560       0.56009569       5.84953572
Si       7.13609309       7.41274519       5.63433299
Si       3.94056661       6.49467756       8.37412398
Si       5.12473875       1.75063189       4.84550459
Si       2.66003246       6.34346338       3.09492946
Si       1.72806647       6.02486758       8.23039341
Si       5.61309367       3.83452238       4.92309790
Si       5.14194313       4.81935704       6.94076603
Si       4.66515151       2.93286770       8.11235263
Si       1.90020080       5.77401919       0.81061500
Si       7.85683992       2.87394598       2.72615694
Si       3.23281641       4.53519868       7.95262313
Si       6.86926167       4.70527522       3.23702920
Si       1.59711583       0.37604079       0.64897901
Si       4.42950175       8.50173513       7.86278863
Si       5.75139216       2.82029904       3.05286109
24
Lattice="6.790765886003801 -2.136544896163448 0.05833046875681029 0.5365858334116238 8.977041004214826 0.03404935601675451 1.6725604737491362 2.8773295540473245 9.02900420129258" Properties=species:S:1:pos:R:3 unique_starting_index=94 config_type=initial n_minim_iter=19 stress="0.004966634794160602 0.0013884844549616137 0.0028522936089351533 0.0013884844549616137 0.0006327552477950292 0.002637746753415535 0.0028522936089351533 0.002637746753415535 0.0020614299023899003" pbc="T T T"
Si       7.08555858       5.87878169       7.19384565
Si       0.13000724       3.35607938       3.77151389
Si       2.08048670       7.53418931      -0.45885503
Si       5.32453655      10.18803958       6.92700656
Si       5.19755277       1.95395223       1.15169825
Si       5.01988816       4.81358784       9.08421217
Si       4.74897297       0.94588005       2.96655000
Si       3.62484762       0.24766297       1.30157355
Si       6.56395310       0.56811745       5.84682283
Si       7.11881197       7.42753041       5.64109362
Si       3.91625902       6.52175368       8.39947247
Si       5.10788030       1.76235792       4.84465524
Si       2.64298356       6.36072463       3.11130204
Si       1.71644340       6.04483171       8.25185036
Si       5.60082616       3.83898219       4.92644569
Si       5.12630818       4.83860610       6.94744928
Si       4.64952815       2.95602024       8.12073471
Si       1.90083817       5.77371843       0.82075389
Si       7.85567047       2.87985697       2.71731727
Si       3.21626079       4.55593443       7.97683352
Si       6.85013180       4.70111312       3.23179582
Si       1.59881179       0.38523001       0.64478380
Si       4.41973399       8.52031614       7.89134382
Si       5.75187797       2.83452326       3.05402223
24
Lattice="6.794958436814006 -2.1377853130086817 0.03658504839592031 0.5344923128957011 8.97411543211503 0.0438141029182515 1.648027006174632 2.8871079266427504 9.033258282773678" Properties=species:S:1:pos:R:3 unique_starting_index=94 config_type=initial n_minim_iter=20 stress="0.0036407465584367207 0.0014414239305060082 -0.001060205590141962 0.0014414239305060082 0.0010485972890669497 0.0015449874558714082 -0.001060205590141962 0.0015449874558714082 0.003491404291671443" pbc="T T T"
Si       7.07431120       5.89378803       7.17006805
Si       0.11833815       3.36752728       3.79020281
Si       2.08788533       7.53147573      -0.45310699
Si       5.31341793      10.19505886       6.93214924
Si       5.20036072       1.95669150       1.14289558
Si       4.99768642       4.82646674       9.07519809
Si       4.73898832       0.94604660       2.95649034
Si       3.62559564       0.24501216       1.29233728
Si       6.54907601       0.56961446       5.83760707
Si       7.09847124       7.42635060       5.62849575
Si       3.88897203       6.52934336       8.40921988
Si       5.09251848       1.76640677       4.83485011
Si       2.62581385       6.37428685       3.11624584
Si       1.69571628       6.05316961       8.25766423
Si       5.58680940       3.83262114       4.91804078
Si       5.10655996       4.84636736       6.94292894
Si       4.63103598       2.96546144       8.11531304
Si       1.90039357       5.76693616       0.82354689
Si       7.85150803       2.87448286       2.69583192
Si       3.19447547       4.56670535       7.98019144
Si       6.83003620       4.68919180       3.21186159
Si       1.59977930       0.38633860       0.64174292
Si       4.40899638       8.52489172       7.89662251
Si       5.75135172       2.83086434       3.04542567
24
Lattice="6.788212030196621 -2.137630077159962 0.018045534746758955 0.5357131959710351 8.978285343826206 0.046945064700309 1.6242870087248829 2.893083430614708 9.035311756811069" Properties=species:S:1:pos:R:3 unique_starting_index=94 config_type=initial n_minim_iter=21 stress="-0.001621815477596845 0.0011856052505254734 -0.007306254176800741 0.0011856052505254734 -0.0011577559361040898 0.003642449720015036 -0.007306254176800741 0.003642449720015036 0.0037662194740593793" pbc="T T T"
Si       7.06862375       5.92424283       7.13135315
Si       0.11048036       3.38945806       3.81245490
Si       2.10087467       7.53410684      -0.44633875
Si       5.29772826      10.20877166       6.92614016
Si       5.18929524       1.96890397       1.13574069
Si       4.97923763       4.83175855       9.07347289
Si       4.72752735       0.94058903       2.95168107
Si       3.62716102       0.24356248       1.27649770
Si       6.53137020       0.57433563       5.83139255
Si       7.07008695       7.42525801       5.60143782
Si       3.85585271       6.54523499       8.42675577
Si       5.07308805       1.76477305       4.83018846
Si       2.59225984       6.39393746       3.11117207
Si       1.68029568       6.06875852       8.25707419
Si       5.56450935       3.82359549       4.90874964
Si       5.07909290       4.85562830       6.93944563
Si       4.61062811       2.97715708       8.10504906
Si       1.90449803       5.76211830       0.82402790
Si       7.83957717       2.87156224       2.66655282
Si       3.16410161       4.57359749       7.97390853
Si       6.79135124       4.67517791       3.17508904
Si       1.60176988       0.38351874       0.64759553
Si       4.40522504       8.53729629       7.90395698
Si       5.73822464       2.81232386       3.03690324
