16
Lattice="4.498644287011442 4.8839195053384403e-32 -2.744901709920743e-17 -1.1179500886505915e-31 9.346536161804572 -1.6921799093727318e-15 4.46965550567815e-17 1.326248030991575e-15 7.3253589128001355" Properties=species:S:1:pos:R:3 unique_starting_index=98 config_type=initial n_minim_iter=1 energy=-2606.8353894642783 free_energy=-2606.8353894642783 pbc="T T T"
Si       1.65651999       5.76316638       0.59029445
Si       2.84212430       1.08989830       6.73506446
Si       3.90584213       8.25663786       6.73506446
Si       0.59280215       3.58336978       0.59029445
Si       2.84212430       3.58336978       6.73506446
Si       1.65651999       8.25663786       0.59029445
Si       0.59280215       1.08989830       0.59029445
Si       3.90584213       5.76316638       6.73506446
Si       1.64322677       5.76707827       3.07233953
Si       2.85541751       1.09381019       4.25301939
Si       3.89254892       8.25272597       4.25301939
Si       0.60609537       3.57945789       3.07233953
Si       2.85541751       3.57945789       4.25301939
Si       1.64322677       8.25272597       3.07233953
Si       0.60609537       1.09381019       3.07233953
Si       3.89254892       5.76707827       4.25301939
16
Lattice="4.505221918061596 4.889762088222753e-32 -2.747396165025708e-17 -1.12026143997332e-31 9.350206923939313 -1.7181337223285414e-15 4.473008677102292e-17 1.3067110538814356e-15 7.3268186845445635" Properties=species:S:1:pos:R:3 unique_starting_index=98 config_type=initial n_minim_iter=2 stress="-0.0005701172319252483 9.22666482954222e-17 8.066587087816152e-17 9.22666482954222e-17 0.001546254918540346 -3.669083090110356e-17 8.066587087816152e-17 -3.669083090110356e-17 0.0012073837928527485" pbc="T T T"
Si       1.65891587       5.76541001       0.59040102
Si       2.84630605       1.09030654       6.73641766
Si       3.91152683       8.25990038       6.73641766
Si       0.59369509       3.58479692       0.59040102
Si       2.84630605       3.58479692       6.73641766
Si       1.65891587       8.25990038       0.59040102
Si       0.59369509       1.09030654       0.59040102
Si       3.91152683       5.76541001       6.73641766
Si       1.64566565       5.76926892       3.07295627
Si       2.85955627       1.09416546       4.25386241
Si       3.89827660       8.25604147       4.25386241
Si       0.60694531       3.58093801       3.07295627
Si       2.85955627       3.58093801       4.25386241
Si       1.64566565       8.25604147       3.07295627
Si       0.60694531       1.09416546       3.07295627
Si       3.89827660       5.76926892       4.25386241
16
Lattice="4.513772831621725 4.9254455766022314e-32 -2.7600430547126672e-17 -1.1127286310073762e-31 9.338213546222807 -1.7100652163303777e-15 4.4560483817999054e-17 1.309870004091186e-15 7.318783036108742" Properties=species:S:1:pos:R:3 unique_starting_index=98 config_type=initial n_minim_iter=3 stress="0.00010366514205145807 1.218672119986492e-16 9.932920047730432e-17 1.218672119986492e-16 -4.425049252318772e-06 -9.357098595688089e-18 9.932920047730432e-17 -9.357098595688089e-18 -0.0003897014664194001" pbc="T T T"
Si       1.66197955       5.75792243       0.58967876
Si       2.85179328       1.08881566       6.72910427
Si       3.91886597       8.24939789       6.72910427
Si       0.59490686       3.58029112       0.58967876
Si       2.85179328       3.58029112       6.72910427
Si       1.66197955       8.24939789       0.58967876
Si       0.59490686       1.08881566       0.58967876
Si       3.91886597       5.75792243       6.72910427
Si       1.64890649       5.76160279       3.06964000
Si       2.86486634       1.09249602       4.24914304
Si       3.90579291       8.24571753       4.24914304
Si       0.60797992       3.57661075       3.06964000
Si       2.86486634       3.57661075       4.24914304
Si       1.64890649       8.24571753       3.06964000
Si       0.60797992       1.09249602       3.06964000
Si       3.90579291       5.76160279       4.24914304
16
Lattice="4.515492119272892 4.942808082186174e-32 -2.756652204715348e-17 -1.1079642114038766e-31 9.330156268381998 -1.6963613484538328e-15 4.4677178551992236e-17 1.3208425502492817e-15 7.326056279176829" Properties=species:S:1:pos:R:3 unique_starting_index=98 config_type=initial n_minim_iter=4 stress="0.00018305215295445922 9.14998536459586e-17 -9.262393047207603e-18 9.14998536459586e-17 -0.0006456488293984117 2.697784382681826e-19 -9.262393047207603e-18 2.697784382681826e-19 0.0006382765429419499" pbc="T T T"
Si       1.66236756       5.75257878       0.58993407
Si       2.85312456       1.08750065       6.73612221
Si       3.92011361       8.24265562       6.73612221
Si       0.59537850       3.57757749       0.58993407
Si       2.85312456       3.57757749       6.73612221
Si       1.66236756       8.24265562       0.58993407
Si       0.59537850       1.08750065       0.58993407
Si       3.92011361       5.75257878       6.73612221
Si       1.65000560       5.75566767       3.07295402
Si       2.86548652       1.09058954       4.25310226
Si       3.90775166       8.23956673       4.25310226
Si       0.60774046       3.57448860       3.07295402
Si       2.86548652       3.57448860       4.25310226
Si       1.65000560       8.23956673       3.07295402
Si       0.60774046       1.09058954       3.07295402
Si       3.90775166       5.75566767       4.25310226
16
Lattice="4.516926401039043 4.935005259680603e-32 -2.7616951793211924e-17 -1.1126355204440761e-31 9.339843639509802 -1.7263827486604384e-15 4.4569319612545594e-17 1.29742563346201e-15 7.319508067791349" Properties=species:S:1:pos:R:3 unique_starting_index=98 config_type=initial n_minim_iter=5 stress="0.00020473717357036544 1.817468431177442e-16 4.907704072318909e-17 1.817468431177442e-16 -6.704507304531217e-05 7.100890507567652e-18 4.907704072318909e-17 7.100890507567652e-18 0.0003127102915379097" pbc="T T T"
Si       1.66198069       5.75728295       0.58823887
Si       2.85494571       1.08736113       6.73126920
Si       3.92044389       8.25248251       6.73126920
Si       0.59648251       3.58256069       0.58823887
Si       2.85494571       3.58256069       6.73126920
Si       1.66198069       8.25248251       0.58823887
Si       0.59648251       1.08736113       0.58823887
Si       3.92044389       5.75728295       6.73126920
Si       1.65230450       5.75826948       3.07113531
Si       2.86462190       1.08834766       4.24837276
Si       3.91076770       8.25149598       4.24837276
Si       0.60615870       3.58157416       3.07113531
Si       2.86462190       3.58157416       4.24837276
Si       1.65230450       8.25149598       3.07113531
Si       0.60615870       1.08834766       3.07113531
Si       3.91076770       5.75826948       4.24837276
16
Lattice="4.516816810949582 4.933543232388186e-32 -2.763765825461634e-17 -1.113820251646615e-31 9.343580423939683 -1.7358922937684206e-15 4.4516165647068397e-17 1.2899255638530156e-15 7.31650319006727" Properties=species:S:1:pos:R:3 unique_starting_index=98 config_type=initial n_minim_iter=6 stress="1.0083002628423432e-05 1.1096651866035454e-16 2.4449488113095533e-17 1.1096651866035454e-16 5.836714258846449e-06 2.9393318430081763e-17 2.4449488113095533e-17 2.9393318430081763e-17 1.3552683334979869e-05" pbc="T T T"
Si       1.66152536       5.75916816       0.58764523
Si       2.85529145       1.08737795       6.72885796
Si       3.91993376       8.25620248       6.72885796
Si       0.59688305       3.58441227       0.58764523
Si       2.85529145       3.58441227       6.72885796
Si       1.66152536       8.25620248       0.58764523
Si       0.59688305       1.08737795       0.58764523
Si       3.91993376       5.75916816       6.72885796
Si       1.65330014       5.75943402       3.07013038
Si       2.86351667       1.08764381       4.24637281
Si       3.91170855       8.25593661       4.24637281
Si       0.60510827       3.58414640       3.07013038
Si       2.86351667       3.58414640       4.24637281
Si       1.65330014       8.25593661       3.07013038
Si       0.60510827       1.08764381       3.07013038
Si       3.91170855       5.75943402       4.24637281
16
Lattice="4.516697934749045 4.930154507478323e-32 -2.7670126749276067e-17 -1.1154822415481194e-31 9.348193485773631 -1.7458729922488606e-15 4.4436640306838624e-17 1.2819594831898255e-15 7.312331971990779" Properties=species:S:1:pos:R:3 unique_starting_index=98 config_type=initial n_minim_iter=7 stress="-0.00022153243146984665 2.0644865073250604e-16 8.504264036270443e-17 2.0644865073250604e-16 0.0001202844490598327 8.809914117912299e-18 8.504264036270443e-17 8.809914117912299e-18 -0.0003611544461152342" pbc="T T T"
Si       1.66053057       5.76151951       0.58704518
Si       2.85616736       1.08742277       6.72528680
Si       3.91887954       8.26077072       6.72528680
Si       0.59781839       3.58667398       0.58704518
Si       2.85616736       3.58667398       6.72528680
Si       1.66053057       8.26077072       0.58704518
Si       0.59781839       1.08742277       0.58704518
Si       3.91887954       5.76151951       6.72528680
Si       1.65637342       5.76081028       3.06848171
Si       2.86032451       1.08671354       4.24385027
Si       3.91472239       8.26147995       4.24385027
Si       0.60197555       3.58738321       3.06848171
Si       2.86032451       3.58738321       4.24385027
Si       1.65637342       8.26147995       3.06848171
Si       0.60197555       1.08671354       3.06848171
Si       3.91472239       5.76081028       4.24385027
16
Lattice="4.516882029310298 4.940228400739193e-32 -2.766127224864634e-17 -1.1118790336288346e-31 9.342558113686943 -1.7299253832456145e-15 4.447057850763426e-17 1.294220743521902e-15 7.315228024165272" Properties=species:S:1:pos:R:3 unique_starting_index=98 config_type=initial n_minim_iter=8 stress="8.54214823620225e-06 5.713909655514346e-17 5.763361273304006e-17 5.713909655514346e-17 -5.598028244033907e-07 -1.1508740140139044e-17 5.763361273304006e-17 -1.1508740140139044e-17 1.1406969895000302e-05" pbc="T T T"
Si       1.65990221       5.75869394       0.58826483
Si       2.85697982       1.08741488       6.72696319
Si       3.91834323       8.25514323       6.72696319
Si       0.59853880       3.58386418       0.58826483
Si       2.85697982       3.58386418       6.72696319
Si       1.65990221       8.25514323       0.58826483
Si       0.59853880       1.08741488       0.58826483
Si       3.91834323       5.75869394       6.72696319
Si       1.66056345       5.75868041       3.06877357
Si       2.85631858       1.08740136       4.24645445
Si       3.91900447       8.25515676       4.24645445
Si       0.59787756       3.58387770       3.06877357
Si       2.85631858       3.58387770       4.24645445
Si       1.66056345       8.25515676       3.06877357
Si       0.59787756       1.08740136       3.06877357
Si       3.91900447       5.75868041       4.24645445
