16
Lattice="5.4596660248784845 0.3032914583147277 0.38447936837711955 2.1209401523114777 6.643393141767355 -0.324189938522504 1.0970685733207621 0.3433196732605597 9.981751270679329" Properties=species:S:1:pos:R:3 unique_starting_index=92 config_type=initial n_minim_iter=1 energy=-2615.999168591004 free_energy=-2615.999168591004 pbc="T T T"
Si       2.99253994       7.25645994       4.28180080
Si       0.45729474       0.46369296       0.41877810
Si       3.27224756       5.40284087       5.26275988
Si       3.12972938       3.54990163       4.26206834
Si       7.78047917       4.43792517       8.82180165
Si       4.09937594       3.17252941       7.91099868
Si       4.80929440       2.22603468       4.31470718
Si       3.10785522       5.41053430       3.16209215
Si       3.77882676       5.16208240       7.25652097
Si       2.73796154       2.21613282       9.30821647
Si       4.51519764       3.68934639       5.86993065
Si       3.77414749       5.45092110       9.30781661
Si       5.92537970       0.96261017       2.92309652
Si       2.47652103       3.74353392       6.34667211
Si       7.48083872       5.75643373       1.70824410
Si       2.04853999       1.50416803       1.38998261
16
Lattice="5.457588898460489 0.3004876964249387 0.3863399334454592 2.1168436484641933 6.640907544327403 -0.32553130167616345 1.1003284587487716 0.3393001391584673 9.978504193056356" Properties=species:S:1:pos:R:3 unique_starting_index=92 config_type=initial n_minim_iter=2 stress="-0.002071275002565681 -0.0006769200741251596 -0.00015635616612762746 -0.0006769200741251596 -0.0027846026875057634 -0.00026899918446856013 -0.00015635616612762746 -0.00026899918446856013 -0.004132517909112512" pbc="T T T"
Si       2.99002133       7.25171396       4.27917930
Si       0.45694443       0.46277747       0.41830775
Si       3.27046769       5.39805596       5.26032644
Si       3.12869623       3.54583944       4.26082042
Si       7.77857932       4.43005374       8.81991544
Si       4.09955633       3.16724460       7.90859467
Si       4.80762265       2.22213004       4.31405233
Si       3.10525398       5.40668275       3.16016401
Si       3.77754896       5.15644725       7.25362295
Si       2.73956456       2.21117131       9.30509127
Si       4.51379331       3.68418598       5.86834415
Si       3.77356939       5.44505313       9.30437984
Si       5.92381651       0.95862806       2.92388745
Si       2.47625063       3.73952148       6.34431956
Si       7.47589768       5.75085047       1.70835130
Si       2.04787465       1.50241695       1.39009998
16
Lattice="5.458138817249322 0.298979943845494 0.38848820104640064 2.115062023488323 6.642792516399503 -0.32654907703271585 1.1040196336031745 0.3366715941324978 9.984157977998029" Properties=species:S:1:pos:R:3 unique_starting_index=92 config_type=initial n_minim_iter=3 stress="0.0006351596507977793 -0.001302718881462655 0.0013823702568004357 -0.001302718881462655 0.0020854290987305734 -0.0019202124539996698 0.0013823702568004357 -0.0019202124539996698 0.0018576826113556786" pbc="T T T"
Si       2.99041341       7.25232888       4.28112489
Si       0.45681453       0.46212639       0.41807077
Si       3.27123954       5.39763753       5.26305259
Si       3.12982971       3.54482958       4.26374822
Si       7.78090573       4.42714940       8.82621227
Si       4.10228321       3.16550875       7.91346116
Si       4.80846706       2.22101342       4.31727130
Si       3.10510989       5.40697755       3.16144683
Si       3.77896318       5.15539596       7.25763505
Si       2.74281634       2.20902700       9.31036375
Si       4.51510126       3.68266493       5.87229485
Si       3.77567610       5.44424193       9.30978360
Si       5.92513530       0.95668276       2.92731546
Si       2.47772758       3.73887052       6.34794829
Si       7.47555830       5.75029537       1.71038825
Si       2.04869227       1.50218538       1.39168367
16
Lattice="5.458037654687549 0.30085459541150295 0.3878839791007194 2.1171556236543285 6.641170234427111 -0.3226554042234453 1.1025253660950205 0.34334162249549344 9.985813901023265" Properties=species:S:1:pos:R:3 unique_starting_index=92 config_type=initial n_minim_iter=4 stress="0.00107111783501219 0.0010523141065230542 0.0010004750452115513 0.0010523141065230542 -0.002650702227920496 0.0004209050316247716 0.0010004750452115513 0.0004209050316247716 0.0020353758237869036" pbc="T T T"
Si       2.99307216       7.25354770       4.28679172
Si       0.45648521       0.46116817       0.41725219
Si       3.27213614       5.40015194       5.26682752
Si       3.13090470       3.54661236       4.26717728
Si       7.77965098       4.43333819       8.82895420
Si       4.10273928       3.17172291       7.91575080
Si       4.80733427       2.22544596       4.31790663
Si       3.10596115       5.40821638       3.16432648
Si       3.77910415       5.15931712       7.26163253
Si       2.74244107       2.21547728       9.31257989
Si       4.51453624       3.68636839       5.87500070
Si       3.77544688       5.45093798       9.31495459
Si       5.92464054       0.96020705       2.92731214
Si       2.47760502       3.74306715       6.35148130
Si       7.47684048       5.75161950       1.71281249
Si       2.05030495       1.50366745       1.39341303
16
Lattice="5.4567078516292336 0.30062970946870626 0.3857195503078806 2.1162254056914933 6.645412618034352 -0.32218919376471444 1.0984740689201822 0.34519986728543944 9.981689510675894" Properties=species:S:1:pos:R:3 unique_starting_index=92 config_type=initial n_minim_iter=5 stress="0.00027667318127330985 0.0008142635223046014 -0.0003023832714164345 0.0008142635223046014 0.0006666199146078644 0.0002474807443341488 -0.0003023832714164345 0.0002474807443341488 -0.0002632584729780603" pbc="T T T"
Si       2.99056126       7.25899021       4.28556757
Si       0.45614924       0.46125637       0.41664404
Si       3.26903143       5.40429359       5.26449659
Si       3.12845874       3.54916255       4.26539595
Si       7.77374427       4.43697088       8.82335737
Si       4.09905362       3.17505764       7.91167476
Si       4.80428236       2.22740194       4.31449602
Si       3.10345064       5.41207573       3.16257911
Si       3.77493680       5.16382711       7.25835825
Si       2.73837059       2.21838782       9.30843769
Si       4.51073863       3.68930208       5.87180620
Si       3.77036041       5.45622639       9.31113952
Si       5.92208927       0.96086649       2.92393394
Si       2.47414584       3.74666778       6.34901526
Si       7.47402516       5.75493285       1.71023811
Si       2.04977655       1.50488330       1.39264858
16
Lattice="5.454487384189912 0.2965271688468277 0.3840565216476896 2.1105246634844077 6.642045021249043 -0.3203155424768401 1.0943217154518952 0.34838518715989475 9.984966556348944" Properties=species:S:1:pos:R:3 unique_starting_index=92 config_type=initial n_minim_iter=6 stress="-0.0010025988042327376 -0.0016843037347786536 -0.0005837270142261962 -0.0016843037347786536 -0.0002848420817219012 0.0018374619282261987 -0.0005837270142261962 0.0018374619282261987 0.00130511947408799" pbc="T T T"
Si       2.98322274       7.25745987       4.28945589
Si       0.45593127       0.46107286       0.41605228
Si       3.26222287       5.40204784       5.26720446
Si       3.12240792       3.54714901       4.26756601
Si       7.76313036       4.43324367       8.82591962
Si       4.09405001       3.17498497       7.91451122
Si       4.80004979       2.22442341       4.31428188
Si       3.09663093       5.40948681       3.16416967
Si       3.76671438       5.16307519       7.26186244
Si       2.73326719       2.21958634       9.31214725
Si       4.50422586       3.68691711       5.87476425
Si       3.76047300       5.45627161       9.31540557
Si       5.91803218       0.95746241       2.92224173
Si       2.46736841       3.74696843       6.35216912
Si       7.46607782       5.74797617       1.71038327
Si       2.04879092       1.50369941       1.39367235
16
Lattice="5.455857216989014 0.297092457848678 0.3828959404531165 2.112248009473307 6.639363482006246 -0.32436930066384345 1.0931114605820407 0.3426319168149688 9.98097348820915" Properties=species:S:1:pos:R:3 unique_starting_index=92 config_type=initial n_minim_iter=7 stress="0.0013567067215968596 -0.0006709157590191478 -0.0008693366209555072 -0.0006709157590191478 -0.0006147767993926356 -0.0008884218703792011 -0.0008693366209555072 -0.0008884218703792011 -0.0008835123947795087" pbc="T T T"
Si       2.98579098       7.25339005       4.28382306
Si       0.45689252       0.46101036       0.41439993
Si       3.26382140       5.39588574       5.26112270
Si       3.12172189       3.54243796       4.26390649
Si       7.76178808       4.42664391       8.81940766
Si       4.09737641       3.17052542       7.90981326
Si       4.80220236       2.22076779       4.30912574
Si       3.09694034       5.40538144       3.15841154
Si       3.76677973       5.15798753       7.25595014
Si       2.73456001       2.21368455       9.30795529
Si       4.50508593       3.68154607       5.87140595
Si       3.75873838       5.44955062       9.30835756
Si       5.91863865       0.95662416       2.91770849
Si       2.46582320       3.74260612       6.34795473
Si       7.46785422       5.74448162       1.70482138
Si       2.05188511       1.50284800       1.39306499
16
Lattice="5.451637379260133 0.29930362929422083 0.3854424395959193 2.112949112440861 6.6405313588728685 -0.32246513240128877 1.0968885475536667 0.34450858237334536 9.981903052547937" Properties=species:S:1:pos:R:3 unique_starting_index=92 config_type=initial n_minim_iter=8 stress="-0.0016104868170331145 0.00012100086210715614 0.0005405744974671968 0.00012100086210715614 0.00036516806335662054 -0.00030916212518978365 0.0005405744974671968 -0.00030916212518978365 -0.0005953927644687975" pbc="T T T"
Si       2.98888718       7.25608530       4.28668239
Si       0.45747549       0.46187458       0.41427995
Si       3.26604599       5.39787226       5.26310626
Si       3.12193123       3.54370778       4.26630691
Si       7.75985442       4.43093438       8.82409865
Si       4.10042440       3.17390163       7.91331724
Si       4.80150564       2.22324381       4.31108498
Si       3.09746221       5.40735666       3.16040952
Si       3.76845156       5.16143172       7.25906916
Si       2.73851284       2.21633350       9.31037770
Si       4.50541810       3.68366984       5.87453819
Si       3.76069939       5.45260838       9.31100883
Si       5.91535716       0.95968761       2.91939126
Si       2.46693652       3.74498897       6.35010466
Si       7.46408737       5.74745903       1.70872884
Si       2.05255672       1.50394190       1.39494193
16
Lattice="5.454276260936911 0.29898207690222106 0.3856718967162128 2.113687049227374 6.637025110425473 -0.32137053462064236 1.097782005515036 0.34578453793198755 9.981409019011004" Properties=species:S:1:pos:R:3 unique_starting_index=92 config_type=initial n_minim_iter=9 stress="0.0005189855005244184 -0.0006569458205650534 0.0009806407187869326 -0.0006569458205650534 3.408823157505071e-05 -0.00010450946716225464 0.0009806407187869326 -0.00010450946716225464 0.0007709834386165885" pbc="T T T"
Si       2.99213556       7.25296693       4.28812688
Si       0.45901659       0.46318977       0.41395167
Si       3.26848122       5.39545940       5.26250566
Si       3.12275133       3.54095320       4.26758448
Si       7.76180849       4.42946391       8.82480142
Si       4.10556984       3.17426275       7.91599225
Si       4.80422731       2.22300913       4.31022061
Si       3.09793156       5.40515340       3.16091800
Si       3.76872516       5.16061099       7.26046986
Si       2.74263559       2.21688156       9.31130900
Si       4.50732793       3.68084881       5.87424747
Si       3.75994034       5.45029125       9.31055801
Si       5.91821264       0.95958619       2.91731861
Si       2.46582133       3.74464721       6.35089295
Si       7.46617432       5.74376585       1.70899285
Si       2.05560901       1.50315575       1.39611315
16
Lattice="5.452121306501957 0.29971227917856696 0.3836918323434075 2.1140779409170736 6.635824390128028 -0.32357497413687436 1.0937446110920848 0.34385886366892243 9.983356888590599" Properties=species:S:1:pos:R:3 unique_starting_index=92 config_type=initial n_minim_iter=10 stress="-0.0017667670171345252 -0.00037407478788167864 -0.0009512385002779112 -0.00037407478788167864 -0.000806605252479647 -0.0015704501014565564 -0.0009512385002779112 -0.0015704501014565564 0.001345025956079408" pbc="T T T"
Si       2.99154252       7.25103736       4.28525573
Si       0.45965712       0.46369783       0.41335706
Si       3.26694437       5.39302895       5.26087363
Si       3.12006489       3.53883471       4.26709592
Si       7.75547998       4.42789194       8.82339531
Si       4.10341425       3.17354058       7.91771351
Si       4.80142926       2.22270067       4.30845177
Si       3.09583926       5.40389014       3.15954642
Si       3.76382682       5.15835021       7.26014569
Si       2.74057384       2.21539444       9.31263519
Si       4.50354502       3.67849619       5.87285884
Si       3.75419483       5.44710670       9.30975336
Si       5.91532356       0.95975644       2.91600336
Si       2.46185488       3.74357692       6.35094111
Si       7.46265279       5.74312718       1.70488279
Si       2.05579304       1.50255860       1.39590673
16
Lattice="5.455367246642667 0.30042820995467256 0.3854125740711353 2.1157129999147717 6.637346135791872 -0.31916797899186883 1.097663468353664 0.3493154960722076 9.977978774574867" Properties=species:S:1:pos:R:3 unique_starting_index=92 config_type=initial n_minim_iter=11 stress="0.0007493159050787662 -0.0007294385149256434 0.00023131356202569516 -0.0007294385149256434 0.00047078222033404375 9.316467187211763e-06 0.00023131356202569516 9.316467187211763e-06 -0.0021451815331105443" pbc="T T T"
Si       2.99642699       7.25540317       4.28552097
Si       0.46124194       0.46462050       0.41310817
Si       3.27198875       5.39653858       5.26098174
Si       3.12258153       3.54119494       4.26757431
Si       7.76214125       4.43418081       8.82316488
Si       4.11083866       3.18017711       7.91837103
Si       4.80611328       2.22622194       4.30790938
Si       3.09825034       5.40714453       3.16178124
Si       3.76654904       5.16337850       7.26009749
Si       2.74807185       2.22173771       9.30984173
Si       4.50760510       3.68163890       5.87289570
Si       3.75770910       5.45297398       9.30777472
Si       5.92029442       0.96205484       2.91741689
Si       2.46405760       3.74896614       6.35015059
Si       7.46670244       5.74608710       1.70851828
Si       2.05886688       1.50330216       1.39719703
16
Lattice="5.453330363558308 0.30521237211552354 0.38336332273371193 2.1206606626236044 6.639800936833758 -0.3182051095022629 1.0933603076302914 0.3532394032490381 9.9812468622893" Properties=species:S:1:pos:R:3 unique_starting_index=92 config_type=initial n_minim_iter=12 stress="-7.132560304656372e-05 0.00020650413962804295 -0.00039125529392689673 0.00020650413962804295 0.00021208855884051602 0.0002790783924474242 -0.00039125529392689673 0.0002790783924474242 -0.00024281862586784657" pbc="T T T"
Si       3.00284538       7.25886700       4.28537674
Si       0.46465211       0.46394993       0.41397240
Si       3.27599490       5.40132460       5.26082552
Si       3.12020708       3.54435597       4.26826984
Si       7.75680148       4.44287721       8.82512798
Si       4.11383169       3.18937870       7.92503375
Si       4.80513197       2.23263618       4.30686851
Si       3.09774741       5.41048626       3.16315626
Si       3.76087696       5.16963280       7.26036710
Si       2.75166257       2.22870198       9.31434918
Si       4.50273687       3.68532869       5.87710745
Si       3.75340937       5.46022202       9.31113900
Si       5.91963865       0.96717242       2.91494386
Si       2.46049864       3.75520202       6.35231321
Si       7.46603114       5.75665958       1.70691283
Si       2.05983230       1.50304348       1.39834945
16
Lattice="5.452462986347495 0.3087168791255755 0.385759301460627 2.1243257261744066 6.6419982346305835 -0.31823380834747483 1.0974768784375315 0.3528313640547721 9.985970940616198" Properties=species:S:1:pos:R:3 unique_starting_index=92 config_type=initial n_minim_iter=13 stress="-0.0009040072158018459 0.0007508309000712714 -0.0002967527635616403 0.0007508309000712714 0.00030919675039352393 0.00011919214108118888 -0.0002967527635616403 0.00011919214108118888 0.0013927707960202302" pbc="T T T"
Si       3.01116637       7.26175423       4.28672828
Si       0.46998256       0.46467502       0.41216815
Si       3.28361470       5.40183567       5.26270047
Si       3.12237469       3.54643165       4.27158354
Si       7.76089100       4.44671098       8.83056317
Si       4.12245077       3.19672657       7.93235478
Si       4.80863863       2.23639628       4.31034101
Si       3.09917411       5.41018812       3.16449115
Si       3.76184988       5.17217681       7.26352567
Si       2.76002869       2.22839883       9.32201560
Si       4.50086478       3.68472527       5.88301589
Si       3.75781808       5.46279165       9.31571589
Si       5.92048755       0.96983061       2.91821307
Si       2.46154207       3.75764580       6.35464170
Si       7.46729358       5.76512663       1.71073224
Si       2.06286787       1.50224245       1.39984691
16
Lattice="5.453290571380923 0.30848691686261354 0.3866656069528828 2.1243815562471577 6.6400169279334555 -0.31763608230642343 1.0993584878374443 0.3529794191892213 9.984820346215189" Properties=species:S:1:pos:R:3 unique_starting_index=92 config_type=initial n_minim_iter=14 stress="-0.00041422210284830556 0.00048826701883415946 -1.8246242511373387e-05 0.00048826701883415946 -6.121618772276351e-05 0.00014053263510214843 -1.8246242511373387e-05 0.00014053263510214843 0.0011407429728796843" pbc="T T T"
Si       3.01250837       7.25952904       4.28694329
Si       0.47151519       0.46417563       0.41142534
Si       3.28542431       5.40012532       5.26238673
Si       3.12302210       3.54570168       4.27167457
Si       7.76408342       4.44449582       8.83082495
Si       4.12518613       3.19658129       7.93360233
Si       4.81086111       2.23582058       4.31115758
Si       3.09915192       5.40758313       3.16453497
Si       3.76201648       5.17281640       7.26279811
Si       2.76228430       2.22825311       9.32056873
Si       4.50050756       3.68231401       5.88332571
Si       3.75964454       5.46134338       9.31500823
Si       5.92165379       0.96938158       2.91940493
Si       2.46173122       3.75712157       6.35349281
Si       7.46827724       5.76433600       1.71204400
Si       2.06463247       1.50123105       1.40080771
16
Lattice="5.454331597660175 0.30767181712584085 0.38499689976843054 2.124012976437153 6.6412556598104855 -0.3203136502129274 1.096851127941695 0.3496220546011712 9.981993731651219" Properties=species:S:1:pos:R:3 unique_starting_index=92 config_type=initial n_minim_iter=15 stress="0.00024864663124079026 -9.558612496591483e-05 3.967392767800981e-05 -9.558612496591483e-05 -0.0003067945280198949 -8.307052858385747e-05 3.967392767800981e-05 -8.307052858385747e-05 -0.0005267911945287571" pbc="T T T"
Si       3.01107209       7.25843244       4.28345004
Si       0.47310570       0.46400716       0.41203186
Si       3.28445767       5.39924820       5.25810513
Si       3.12113604       3.54390496       4.26723633
Si       7.76479355       4.43996414       8.82503999
Si       4.12345672       3.19755666       7.93074697
Si       4.81094399       2.23466302       4.30915608
Si       3.09734558       5.40653981       3.16099737
Si       3.75839727       5.17197179       7.25797015
Si       2.75928988       2.22596400       9.31440459
Si       4.49775005       3.67876870       5.88086774
Si       3.75785264       5.45720859       9.30905920
Si       5.92232014       0.96858181       2.91639749
Si       2.45885891       3.75682914       6.34986106
Si       7.46858178       5.76454275       1.70704550
Si       2.06604437       1.49984937       1.40092917
16
Lattice="5.4554821649911345 0.30762922815794247 0.38392868351064446 2.1244906562517816 6.641301053167004 -0.32062078116895903 1.0952211607967608 0.34969393818567857 9.980595048555772" Properties=species:S:1:pos:R:3 unique_starting_index=92 config_type=initial n_minim_iter=16 stress="0.0005736468538747429 -0.00037507810590298705 6.853889802686847e-05 -0.00037507810590298705 -0.0001692504905779883 -0.00011387856209413709 6.853889802686847e-05 -0.00011387856209413709 -0.0009543145963944303" pbc="T T T"
Si       3.01077534       7.25788186       4.28252645
Si       0.47498013       0.46321751       0.41217044
Si       3.28457019       5.39870228       5.25673839
Si       3.12079349       3.54257285       4.26531822
Si       7.76490318       4.43977363       8.82290078
Si       4.12321826       3.19963182       7.93117621
Si       4.81115975       2.23487790       4.30817476
Si       3.09685561       5.40709688       3.16028665
Si       3.75683353       5.17356560       7.25588725
Si       2.75790213       2.22462055       9.31371551
Si       4.49627087       3.67831312       5.87961964
Si       3.75765799       5.45734640       9.30780359
Si       5.92384721       0.96933612       2.91478907
Si       2.45707425       3.75797715       6.34759959
Si       7.46996289       5.76460722       1.70379595
Si       2.06657560       1.49921014       1.39967587
16
Lattice="5.454599024893104 0.3084170957730023 0.3836307172935904 2.125077175414383 6.641545803655319 -0.32014950701561495 1.0943429105188767 0.3508883933510085 9.982571970482175" Properties=species:S:1:pos:R:3 unique_starting_index=92 config_type=initial n_minim_iter=17 stress="-8.961809442975213e-05 -0.00011749128945765267 0.00013195788793408592 -0.00011749128945765267 0.00013713555241782717 -3.0140276738356765e-05 0.00013195788793408592 -3.0140276738356765e-05 -3.0976256193685755e-05" pbc="T T T"
Si       3.01094231       7.25856843       4.28450051
Si       0.47674817       0.46184662       0.41152600
Si       3.28534941       5.39861580       5.25714418
Si       3.11995659       3.54224653       4.26532897
Si       7.76356445       4.44180589       8.82351033
Si       4.12347701       3.20380331       7.93595056
Si       4.81107502       2.23535723       4.30896174
Si       3.09559705       5.40809306       3.16116302
Si       3.75404313       5.17625502       7.25750971
Si       2.75819271       2.22501227       9.31622403
Si       4.49294893       3.67902805       5.88187905
Si       3.75783568       5.45836782       9.30957656
Si       5.92345285       0.97094946       2.91473182
Si       2.45459912       3.76067641       6.34947893
Si       7.46953571       5.76598020       1.70343329
Si       2.06793866       1.49920490       1.39965271
16
Lattice="5.454791565243036 0.30843682940358325 0.38339237150291333 2.125254320795399 6.6417433705894044 -0.32121677065262544 1.0941301124983889 0.34932554923156445 9.981205707070266" Properties=species:S:1:pos:R:3 unique_starting_index=92 config_type=initial n_minim_iter=18 stress="-0.0005546731881698501 0.00012304960393357355 -3.516814919715186e-05 0.00012304960393357355 0.0005461194475387029 -7.767773947563775e-05 -3.516814919715186e-05 -7.767773947563775e-05 0.0006173311498803716" pbc="T T T"
Si       3.01095934       7.25812083       4.28336572
Si       0.47876458       0.46055635       0.41064794
Si       3.28650760       5.39617809       5.25441421
Si       3.12007620       3.54044707       4.26311555
Si       7.76341626       4.44041070       8.82258882
Si       4.12455531       3.20659083       7.93679394
Si       4.81118521       2.23484118       4.30838249
Si       3.09421412       5.40783755       3.15967405
Si       3.75209284       5.17709389       7.25558835
Si       2.75915001       2.22331415       9.31419168
Si       4.48939819       3.67706036       5.88218471
Si       3.75927595       5.45560769       9.30648245
Si       5.92482923       0.97112352       2.91350981
Si       2.45184129       3.76120918       6.34664216
Si       7.47039160       5.76578587       1.70186385
Si       2.06957055       1.49845830       1.39931716
16
Lattice="5.455165490642607 0.307471905643906 0.38327351038159385 2.124350604490852 6.641043042578674 -0.3223413256783656 1.094087459433295 0.3474261902760361 9.98042915872782" Properties=species:S:1:pos:R:3 unique_starting_index=92 config_type=initial n_minim_iter=19 stress="-0.0001658039764663634 0.0001470873277079703 -0.00010419523096192087 0.0001470873277079703 -0.00038408520081115947 0.00016101179002524075 -0.00010419523096192087 0.00016101179002524075 0.00018056037221683553" pbc="T T T"
Si       3.00920129       7.25575423       4.28265239
Si       0.47962261       0.46033181       0.41007545
Si       3.28603699       5.39495394       5.25184791
Si       3.12003465       3.53887945       4.26077340
Si       7.76298899       4.43708174       8.82175853
Si       4.12399541       3.20609095       7.93618907
Si       4.81081940       2.23322205       4.30837099
Si       3.09339110       5.40628689       3.15899731
Si       3.75068532       5.17593740       7.25370086
Si       2.75843888       2.22095254       9.31241699
Si       4.48787946       3.67429495       5.88192259
Si       3.76085020       5.45191051       9.30484691
Si       5.92572170       0.96989565       2.91356450
Si       2.45023791       3.76021451       6.34603981
Si       7.47098186       5.76308861       1.70053302
Si       2.06986210       1.49785181       1.39845229
16
Lattice="5.455742532720795 0.3068087570965365 0.38368558495244637 2.123742350009876 6.640911320942101 -0.32222287681707695 1.0949230917156187 0.3472320590114025 9.980468728682904" Properties=species:S:1:pos:R:3 unique_starting_index=92 config_type=initial n_minim_iter=20 stress="-2.1137117665293566e-05 -8.682926475055171e-06 -7.799463953134292e-05 -8.682926475055171e-06 -0.0002757325417589371 -1.1049423880709143e-05 -7.799463953134292e-05 -1.1049423880709143e-05 6.896699171502086e-05" pbc="T T T"
Si       3.00807832       7.25592310       4.28308882
Si       0.47944387       0.45994488       0.41063664
Si       3.28605753       5.39440395       5.25203998
Si       3.12065786       3.53882163       4.26057356
Si       7.76387337       4.43625658       8.82252703
Si       4.12409123       3.20593540       7.93660704
Si       4.81133241       2.23232123       4.30906388
Si       3.09357002       5.40589489       3.15943084
Si       3.75069086       5.17556115       7.25380467
Si       2.75884812       2.22080340       9.31196332
Si       4.48816702       3.67363855       5.88160095
Si       3.76257511       5.45110106       9.30539983
Si       5.92662737       0.96896746       2.91363869
Si       2.45034764       3.76032596       6.34670457
Si       7.47205876       5.76189402       1.70084326
Si       2.06992393       1.49792478       1.39822085
16
Lattice="5.455803274199473 0.3067419449896012 0.38505361469748806 2.123548347688429 6.641016871936171 -0.3215241562627945 1.0974278222552782 0.3474503106380132 9.980359090080883" Properties=species:S:1:pos:R:3 unique_starting_index=92 config_type=initial n_minim_iter=21 stress="0.0001289213403402919 -5.513671651224075e-05 6.699630601114722e-05 -5.513671651224075e-05 -7.4257167259501096e-06 1.3820218130606443e-06 6.699630601114722e-05 1.3820218130606443e-06 -0.00025135646787583757" pbc="T T T"
Si       3.00838893       7.25596056       4.28376492
Si       0.47918488       0.45943720       0.41106421
Si       3.28724565       5.39454445       5.25292272
Si       3.12189133       3.53902677       4.26115332
Si       7.76604464       4.43756472       8.82479028
Si       4.12586194       3.20610463       7.93733085
Si       4.81206169       2.23186661       4.30979597
Si       3.09451503       5.40656139       3.15998773
Si       3.75193055       5.17592504       7.25473519
Si       2.76125699       2.22107044       9.31218746
Si       4.48945046       3.67403288       5.88230311
Si       3.76555377       5.45095895       9.30614474
Si       5.92736549       0.96818692       2.91516997
Si       2.45142186       3.76063518       6.34742351
Si       7.47340076       5.76155691       1.70308858
Si       2.07030747       1.49854297       1.39812507
