20
Lattice="4.356876702633875 -2.330428928426721e-16 1.3512123307879018e-11 1.9913572132321618e-16 3.7229617906246415 5.389438906432164e-14 -7.027356418228117e-11 -3.279235853909302e-13 22.659151905333303" Properties=species:S:1:pos:R:3 unique_starting_index=4 config_type=initial n_minim_iter=9 energy=-3261.773068441251 free_energy=-3261.773068441251 pbc="T T T"
Si       2.61655839       2.73682767      14.32540048
Si       2.61655839       0.98613412       8.33375143
Si       1.46379647       1.55715997      12.47703648
Si       1.46379647       2.16580182      10.18211543
Si       1.74031831       0.87534678      19.66332738
Si       1.74031831       2.84761501       2.99582453
Si       2.89308023       3.41864087      21.51169138
Si       2.89308023       0.30432092       1.14746052
Si       2.10159504       2.83530014       5.12434152
Si       2.10159504       0.88766165      17.53481039
Si       1.96596003       2.74884384      18.56201658
Si       1.96596003       0.97411795       4.09713533
Si       2.25528166       0.97381924       6.20523444
Si       2.25528166       2.74914255      16.45391747
Si       2.39091667       0.88736295      15.42671128
Si       2.39091667       2.83559885       7.23244063
Si       5.03461706       2.16781827      21.50992520
Si       5.03461706       1.55514352       1.14922671
Si      -0.67774036       3.41662441      10.18034924
Si      -0.67774036       0.30633738      12.47880266
