6
Lattice="5.4652194753915655 -0.17016717571936418 -0.25964256557528026 -2.7368143488386263 4.733648487359675 0.25964256557531046 -2.746938246430651 -1.4550333968329692 4.505796614156843" Properties=species:S:1:pos:R:3 unique_starting_index=74 config_type=initial n_minim_iter=1 energy=-977.2004766389044 free_energy=-977.2004766389044 pbc="T T T"
Si      -1.03161811       2.46536793       3.78244341
Si      -2.65999838      -0.25823160       3.78244341
Si      -0.58664290       0.35074090       1.10996537
Si      -4.40336572       2.63267554       4.42673799
Si       1.62996652       2.12284624       0.41514273
Si       2.88998039       1.36951165       2.38337653
6
Lattice="5.461585264790143 -0.16954591174760977 -0.259963082001622 -2.734546866232824 4.730741258739411 0.2599630820016523 -2.7456773258904015 -1.4542357228651313 4.502409877965482" Properties=species:S:1:pos:R:3 unique_starting_index=74 config_type=initial n_minim_iter=2 stress="-0.0023825878571396755 -0.004065286048462066 -0.0018940282817038125 -0.004065286048462066 -0.00675156700508481 0.0011323978604770664 -0.0018940282817038125 0.0011323978604770664 -0.0012647227267583174" pbc="T T T"
Si      -1.03080629       2.46403408       3.78000637
Si      -2.65843914      -0.25831535       3.78000637
Si      -0.58635134       0.35056658       1.10878831
Si      -4.40088878       2.63119463       4.42366182
Si       1.62888811       2.12193944       0.41452564
Si       2.88804937       1.36911461       2.38142760
6
Lattice="5.461213653464057 -0.16327273059999406 -0.2575644623413977 -2.728845054972001 4.733383274075176 0.25756446234142827 -2.745503416244148 -1.460390702525779 4.499702433824812" Properties=species:S:1:pos:R:3 unique_starting_index=74 config_type=initial n_minim_iter=3 stress="-0.0019778873325142564 0.0012912738473827884 0.0011588611625995286 0.0012912738473827884 -0.0005901501730015473 -0.0006928576060864874 0.0011588611625995286 -0.0006928576060864874 -0.0019467483398147754" pbc="T T T"
Si      -1.02555458       2.46483472       3.77835666
Si      -2.65665856      -0.26332044       3.77835666
Si      -0.58572663       0.35019308       1.10687176
Si      -4.39676785       2.62873082       4.41870701
Si       1.63104278       2.12670222       0.41372831
Si       2.89090187       1.37346017       2.38172034
6
Lattice="5.465639789936002 -0.158533352376355 -0.2588283836261807 -2.7267653134743477 4.739525510257372 0.2588283836262115 -2.7501306154926675 -1.4650098697366165 4.500652280350262" Properties=species:S:1:pos:R:3 unique_starting_index=74 config_type=initial n_minim_iter=4 stress="0.00010933223204539688 -0.0002213518895594263 -0.0024997334184095493 -0.0002213518895594263 -0.00012855552748135266 0.0014945356424330995 -0.0024997334184095493 0.0014945356424330995 -0.00149079786926726" pbc="T T T"
Si      -1.02496910       2.46681672       3.78076332
Si      -2.65812733      -0.26477435       3.78076332
Si      -0.58719526       0.35107114       1.10567057
Si      -4.39988482       2.63059439       4.41893825
Si       1.63205106       2.13348505       0.41022199
Si       2.89647184       1.37751568       2.38533970
6
Lattice="5.464960954762892 -0.14930644936640003 -0.24262670089885047 -2.718316209425637 4.74329501912743 0.2426267008988814 -2.739385862342466 -1.4802549637583555 4.500174297553514" Properties=species:S:1:pos:R:3 unique_starting_index=74 config_type=initial n_minim_iter=5 stress="-9.51047534230339e-05 0.00042788322543772545 -0.000908176186789015 0.00042788322543772545 0.0003647430573593499 0.000542978571554255 -0.000908176186789015 0.000542978571554255 -0.0009803495965509967" pbc="T T T"
Si      -1.00890746       2.46415083       3.77774919
Si      -2.64817636      -0.27766083       3.77774919
Si      -0.58700258       0.35095594       1.10067074
Si      -4.38485915       2.62161087       4.40104839
Si       1.63322955       2.14160150       0.40599401
Si       2.91531924       1.37506827       2.40871187
6
Lattice="5.462277956103794 -0.14624030465350707 -0.2229801304797617 -2.7143453318306054 4.742382957544854 0.22298013047979265 -2.722918537232184 -1.49156245414293 4.502059853002811" Properties=species:S:1:pos:R:3 unique_starting_index=74 config_type=initial n_minim_iter=6 stress="0.004407545697968122 -0.0015485867669554614 0.002778896217432612 -0.0015485867669554614 0.0027432733163770913 -0.0016614409412385746 0.002778896217432612 -0.0016614409412385746 0.007259360472927338" pbc="T T T"
Si      -0.99045398       2.45895440       3.77771587
Si      -2.63486413      -0.29145641       3.77771587
Si      -0.58696618       0.35093418       1.10175208
Si      -4.36354173       2.60886565       4.38363630
Si       1.62863079       2.14581304       0.39780453
Si       2.92963926       1.36796868       2.43007490
6
Lattice="5.432021973759748 -0.07773589159890867 -0.18719812205907785 -2.6396798234555447 4.748157118492712 0.18719812205910982 -2.7007305088626485 -1.555243214928217 4.453675110520742" Properties=species:S:1:pos:R:3 unique_starting_index=74 config_type=initial n_minim_iter=7 stress="0.00856041521090876 0.011403755745923744 0.010353880182602268 0.011403755745923744 0.020816077043349774 -0.0061903572822355505 0.010353880182602268 -0.0061903572822355505 0.008918246650108819" pbc="T T T"
Si      -0.92392670       2.46771088       3.73051711
Si      -2.61108737      -0.35420369       3.73051711
Si      -0.58944283       0.35241491       1.10401648
Si      -4.26411927       2.54942315       4.29734928
Si       1.62792463       2.19665027       0.36201599
Si       2.96911023       1.39478489       2.45704597
6
Lattice="5.443109268818756 -0.08523388531569331 -0.21218611915206576 -2.6515327288335437 4.754374566168629 0.21218611915209815 -2.724174727813341 -1.540357288141893 4.459360688919276" Properties=species:S:1:pos:R:3 unique_starting_index=74 config_type=initial n_minim_iter=8 stress="0.0018751415569592345 0.0028196285994704366 0.004238963078995015 0.0028196285994704366 0.004905407670858337 -0.0025343828113070345 0.004238963078995015 -0.0025343828113070345 0.0031272140306026768" pbc="T T T"
Si      -0.94234188       2.48696020       3.73898775
Si      -2.63676037      -0.34709366       3.73898775
Si      -0.59813965       0.35761455       1.11000418
Si      -4.29201112       2.56609907       4.32001767
Si       1.62361988       2.19835483       0.35588964
Si       2.96419658       1.39685350       2.44996847
6
Lattice="5.449707369075663 -0.07366064144383842 -0.2268672006339868 -2.6444612618361263 4.7656647944755335 0.22686720063401972 -2.743019845026869 -1.5446083098838592 4.454911034376036" Properties=species:S:1:pos:R:3 unique_starting_index=74 config_type=initial n_minim_iter=9 stress="0.0022853624571861288 0.0025218154673729313 0.0015129363326704805 0.0025218154673729313 0.004995567608924432 -0.0009045513642439049 0.0015129363326704805 -0.0009045513642439049 0.0018261839022447818" pbc="T T T"
Si      -0.94390339       2.50768911       3.73724078
Si      -2.65575915      -0.35553002       3.73724078
Si      -0.60497738       0.36170268       1.11386936
Si      -4.29865564       2.57007169       4.32371496
Si       1.62118008       2.21533164       0.34140206
Si       2.97243066       1.40744863       2.45215427
6
Lattice="5.4531931783056145 -0.0821359138251983 -0.23221339641064018 -2.653576929030791 4.76472366774551 0.23221339641067348 -2.7463993538693745 -1.5361965921666354 4.4604232791308815" Properties=species:S:1:pos:R:3 unique_starting_index=74 config_type=initial n_minim_iter=10 stress="-0.002272900315977472 -0.003488591809386864 -0.0023727982944543595 -0.003488591809386864 -0.006022103862627868 0.001418643923103927 -0.0023727982944543595 0.001418643923103927 -0.0018316455387441472" pbc="T T T"
Si      -0.95370457       2.50606999       3.74226459
Si      -2.65897221      -0.34612997       3.74226459
Si      -0.60256044       0.36025764       1.11311202
Si      -4.31246289       2.57832674       4.33705661
Si       1.62080510       2.20916465       0.34521343
Si       2.96674945       1.40445412       2.44767692
6
Lattice="5.450798805826352 -0.07555934687876195 -0.22774417553258755 -2.6466504139350464 4.765727480974559 0.22774417553262172 -2.7436600769502455 -1.5429793698933163 4.4564928242083575" Properties=species:S:1:pos:R:3 unique_starting_index=74 config_type=initial n_minim_iter=11 stress="0.0016413746578145577 0.0027776327163699806 0.0010747805161221854 0.0027776327163699806 0.004626507628457547 -0.0006425876364457758 0.0010747805161221854 -0.0006425876364457758 0.0007255792230798628" pbc="T T T"
Si      -0.94725936       2.50663379       3.73754424
Si      -2.65641806      -0.35207429       3.73754424
Si      -0.59731662       0.35712248       1.11220193
Si      -4.30504075       2.57388920       4.33425353
Si       1.62080146       2.21431185       0.34166797
Si       2.96946884       1.40797328       2.44838505
6
Lattice="5.4502827995028715 -0.07065715056989906 -0.22639655857024257 -2.6420879258871888 4.7675933571734666 0.2263965585702775 -2.7438507643275925 -1.547459049578449 4.454041300009739" Properties=species:S:1:pos:R:3 unique_starting_index=74 config_type=initial n_minim_iter=12 stress="-0.0006237961923597018 9.579280645795648e-05 0.0002976122525728844 9.579280645795648e-05 -0.0005208472808244788 -0.00017793582137343335 0.0002976122525728844 -0.00017793582137343335 -0.00047480470880615196" pbc="T T T"
Si      -0.94355788       2.51311891       3.73202780
Si      -2.66037860      -0.35840452       3.73202780
Si      -0.58712891       0.35103147       1.11282098
Si      -4.30306402       2.57270736       4.34200800
Si       1.61571950       2.22194393       0.33056913
Si       2.97437547       1.40963340       2.45288911
6
Lattice="5.451347738246979 -0.07060249706839115 -0.2243200726903462 -2.642543862970969 4.768557308888834 0.22432007269038165 -2.742663773647205 -1.548860082163564 4.455482492558793" Properties=species:S:1:pos:R:3 unique_starting_index=74 config_type=initial n_minim_iter=13 stress="3.539966456101205e-05 0.0002798198601995371 -0.00034408670911812713 0.0002798198601995371 0.00033612318553165446 0.00020572187704137303 -0.00034408670911812713 0.00020572187704137303 -0.0003703720765717034" pbc="T T T"
Si      -0.94310175       2.51190478       3.73249939
Si      -2.65909319      -0.35823163       3.73249939
Si      -0.58400225       0.34916211       1.11126801
Si      -4.30450192       2.57356705       4.34442169
Si       1.61575163       2.22261608       0.33014367
Si       2.97636204       1.40913703       2.45551662
6
Lattice="5.4508894705921795 -0.07074017322095025 -0.2220675340819802 -2.642448221659531 4.768088462745664 0.2220675340820163 -2.740550390458239 -1.5497119631933556 4.45581536544185" Properties=species:S:1:pos:R:3 unique_starting_index=74 config_type=initial n_minim_iter=14 stress="-5.9653074067997835e-05 -5.855963442753828e-06 -0.00011019764572947625 -5.855963442753828e-06 -6.594650140837438e-05 6.588474920491337e-05 -0.00011019764572947625 6.588474920491337e-05 -0.0001325257797911382" pbc="T T T"
Si      -0.94139725       2.51081037       3.73252859
Si      -2.65732234      -0.35921505       3.73252859
Si      -0.58386001       0.34907707       1.11115682
Si      -4.30242491       2.57232525       4.34262917
Si       1.61539477       2.22241777       0.32986946
Si       2.97756240       1.40800770       2.45767491
6
Lattice="5.450819612455318 -0.07061762173678575 -0.22175224351053308 -2.642307201872769 4.76808493495645 0.22175224351058084 -2.740296529613307 -1.5499445258505011 4.455787500555248" Properties=species:S:1:pos:R:3 unique_starting_index=74 config_type=initial n_minim_iter=15 stress="-4.792239624330383e-05 1.7092765306955626e-06 -8.697636977622363e-05 1.7092765306955626e-06 -4.608542997832689e-05 5.2001258957512564e-05 -8.697636977622363e-05 5.2001258957512564e-05 -0.00010922439667371395" pbc="T T T"
Si      -0.94108506       2.51073490       3.73245978
Si      -2.65710808      -0.35945433       3.73245978
Si      -0.58381863       0.34905232       1.11113812
Si      -4.30205722       2.57210542       4.34232690
Si       1.61533846       2.22253222       0.32972592
Si       2.97782010       1.40793441       2.45802187
