10
Lattice="7.934478792552305 -1.2666026282042764 -2.134150769145998e-15 -4.103041704812056 6.908348912425404 -6.928644946216621e-16 -1.9157185438701239 -2.8208731421105626 5.347802913190996" Properties=species:S:1:pos:R:3 unique_starting_index=26 config_type=initial n_minim_iter=1 energy=-1622.0570211074146 free_energy=-1622.0570211074146 pbc="T T T"
Si       2.11249283       4.74967494       0.55225408
Si       1.71596621       0.89708432       0.55225408
Si       1.71596621       0.89708432       4.79942986
Si      -1.71894426      -0.89207134       4.79942986
Si       5.00618654       2.78450231       0.80730005
Si      -1.17772749       2.86225695       0.80730005
Si      -1.17772749       2.86225695       4.54438388
Si       1.17474945      -2.85724397       4.54438388
Si       6.15228219      -2.11571788       2.67584197
Si       1.77921855       0.85412823       2.67584197
10
Lattice="7.951865989438656 -1.2784409399926906 -2.3381946433363142e-15 -4.12045704285631 6.920145786688065 -6.92565482229673e-16 -1.915704473291174 -2.8208524233476844 5.342644111707689" Properties=species:S:1:pos:R:3 unique_starting_index=26 config_type=initial n_minim_iter=2 stress="0.00566860355921333 -0.0031036786189979943 3.1969534008106256e-16 -0.0031036786189979943 0.0032062512242262363 -2.450234475650053e-16 3.1969534008106256e-16 -2.450234475650053e-16 0.0015036893637620204" pbc="T T T"
Si       2.11004438       4.75129232       0.55193937
Si       1.71837388       0.89543407       0.55193937
Si       1.71837388       0.89543407       4.79458202
Si      -1.72136456      -0.89041253       4.79458202
Si       5.01180540       2.78064100       0.80649032
Si      -1.18338713       2.86608539       0.80649032
Si      -1.18338713       2.86608539       4.54003107
Si       1.18039645      -2.86106385       4.54003107
Si       6.16729604      -2.12592927       2.67326070
Si       1.78157926       0.85250987       2.67326070
10
Lattice="7.94973665522725 -1.2778554470852834 -2.3318500329525303e-15 -4.119127654379703 6.918382383045456 -7.054655060203451e-16 -1.9153045004237734 -2.820263467980084 5.339049269131247" Properties=species:S:1:pos:R:3 unique_starting_index=26 config_type=initial n_minim_iter=3 stress="0.00409652842038242 -0.00238364729407958 -1.2348979104873252e-16 -0.00238364729407958 0.0022054242820753324 8.217347626072892e-17 -1.2348979104873252e-16 8.217347626072892e-17 -0.002921989195254458" pbc="T T T"
Si       2.10944506       4.75040814       0.55160386
Si       1.71817422       0.89513905       0.55160386
Si       1.71817422       0.89513905       4.79132008
Si      -1.72116394      -0.89011879       4.79132008
Si       5.01043296       2.78028186       0.80586694
Si      -1.18281368       2.86526534       0.80586694
Si      -1.18281368       2.86526534       4.53705700
Si       1.17982396      -2.86024508       4.53705700
Si       6.16561030      -2.12521505       2.67146197
Si       1.78113664       0.85237986       2.67146197
10
Lattice="7.941923375932923 -1.2762389871683728 -2.328965447541777e-15 -4.114744097707436 6.911715696695022 -7.08366154883903e-16 -1.913589639112744 -2.8177383547633217 5.343550931604174" Properties=species:S:1:pos:R:3 unique_starting_index=26 config_type=initial n_minim_iter=4 stress="0.0016697590324712052 -0.0013654377330977795 -7.744153563819225e-16 -0.0013654377330977795 0.0005864674926219035 5.104183496043301e-16 -7.744153563819225e-16 5.104183496043301e-16 -0.00024437397209936854" pbc="T T T"
Si       2.10630455       4.74700502       0.55194952
Si       1.71788819       0.89348711       0.55194952
Si       1.71788819       0.89348711       4.79547935
Si      -1.72087473      -0.88847169       4.79547935
Si       5.00488595       2.77851304       0.80610742
Si      -1.18069321       2.86197909       0.80610742
Si      -1.18069321       2.86197909       4.54132145
Si       1.17770668      -2.85696367       4.54132145
Si       6.15951631      -2.12292268       2.67371443
Si       1.77942052       0.85169911       2.67371443
10
Lattice="7.941678597810263 -1.2729038949509337 -2.3312512631495583e-15 -4.111553751723192 6.912717918690884 -7.035181716944268e-16 -1.9150624230435362 -2.819907011869973 5.344484221595971" Properties=species:S:1:pos:R:3 unique_starting_index=26 config_type=initial n_minim_iter=5 stress="0.0006120498026446138 -0.0003179715404085776 -1.2092842708815128e-15 -0.0003179715404085776 0.0003597820709953838 8.261779409175494e-16 -1.2092842708815128e-15 8.261779409175494e-16 -0.00010638581403601457" pbc="T T T"
Si       2.10820313       4.75047009       0.55258929
Si       1.71893749       0.89436008       0.55258929
Si       1.71893749       0.89436008       4.79577355
Si      -1.72192172      -0.88934393       4.79577355
Si       5.00689529       2.78190289       0.80635773
Si      -1.17975467       2.86292728       0.80635773
Si      -1.17975467       2.86292728       4.54200511
Si       1.17677045      -2.85791113       4.54200511
Si       6.15884522      -2.12088135       2.67418142
Si       1.77984915       0.85299360       2.67418142
10
Lattice="7.939872288001914 -1.272961788864229 -2.3277840602220125e-15 -4.110941523668821 6.911017541192098 -7.028702702918298e-16 -1.9144653821665472 -2.819027876163933 5.345015137052042" Properties=species:S:1:pos:R:3 unique_starting_index=26 config_type=initial n_minim_iter=6 stress="-0.00012911536567780988 1.470037424973044e-05 -8.272418734131169e-16 1.470037424973044e-05 -0.00011745259214221607 5.161714759407708e-16 -8.272418734131169e-16 5.161714759407708e-16 1.8155610949689207e-05" pbc="T T T"
Si       2.10765759       4.74891321       0.55274738
Si       1.71828940       0.89415745       0.55274738
Si       1.71828940       0.89415745       4.79614676
Si      -1.72127317      -0.88914254       4.79614676
Si       5.00554641       2.78089158       0.80670244
Si      -1.17959943       2.86217908       0.80670244
Si      -1.17959943       2.86217908       4.54219169
Si       1.17661565      -2.85716417       4.54219169
Si       6.15756549      -2.12065502       2.67444707
Si       1.77932302       0.85270814       2.67444707
10
Lattice="7.939381027620489 -1.2714770266930615 -2.3262883080441524e-15 -4.109380240634752 6.91110837485778 -6.969431388448552e-16 -1.9150003934928692 -2.819815674082358 5.345271780214311" Properties=species:S:1:pos:R:3 unique_starting_index=26 config_type=initial n_minim_iter=7 stress="-0.0001986326993834196 0.00015229923410178968 -1.4658605441631426e-15 0.00015229923410178968 -7.78037023302179e-05 9.839869372949885e-16 -1.4658605441631426e-15 9.839869372949885e-16 1.7600560107691057e-05" pbc="T T T"
Si       2.10863680       4.74997533       0.55284612
Si       1.71838134       0.89467100       0.55284612
Si       1.71838134       0.89467100       4.79630485
Si      -1.72136399      -0.88965602       4.79630485
Si       5.00583233       2.78242453       0.80696368
Si      -1.17881419       2.86222180       0.80696368
Si      -1.17881419       2.86222180       4.54218728
Si       1.17583154      -2.85720681       4.54218728
Si       6.15703730      -2.11972033       2.67457548
Si       1.77936108       0.85325828       2.67457548
10
Lattice="7.935378254649819 -1.2673451064374037 -2.3254374106907048e-15 -4.1040635247660875 6.908911220146405 -6.981646713170028e-16 -1.9156573649418673 -2.820783056854499 5.347603927334555" Properties=species:S:1:pos:R:3 unique_starting_index=26 config_type=initial n_minim_iter=8 stress="-1.4826876356137889e-05 0.00010417481288892213 -1.3504408597033121e-15 0.00010417481288892213 6.782185286320904e-05 9.32417679535143e-16 -1.3504408597033121e-15 9.32417679535143e-16 2.410530528407473e-05" pbc="T T T"
Si       2.11020806       4.75102908       0.55399490
Si       1.71812788       0.89555042       0.55399490
Si       1.71812788       0.89555042       4.79748991
Si      -1.72110667      -0.89053703       4.79748991
Si       5.00439208       2.78552347       0.80885769
Si      -1.17605614       2.86105603       0.80885769
Si      -1.17605614       2.86105603       4.54262712
Si       1.17307735      -2.85604264       4.54262712
Si       6.15391081      -2.11688977       2.67574240
Si       1.77848866       0.85455805       2.67574240
10
Lattice="7.934944971885908 -1.2678652223819216 -2.325958915263031e-15 -4.104387226509519 6.908316685260512 -6.974768877024933e-16 -1.915278872688196 -2.8202257314392942 5.347804912308439" Properties=species:S:1:pos:R:3 unique_starting_index=26 config_type=initial n_minim_iter=9 stress="-6.442495831123326e-06 2.2817242581344174e-05 -1.57922565382809e-15 2.2817242581344174e-05 1.165992308747481e-05 1.0383388889222381e-15 -1.57922565382809e-15 1.0383388889222381e-15 4.70333866991318e-06" pbc="T T T"
Si       2.10959390       4.75022432       0.55411928
Si       1.71798482       0.89524009       0.55411928
Si       1.71798482       0.89524009       4.79756666
Si      -1.72096384      -0.89022714       4.79756666
Si       5.00380334       2.78470145       0.80900352
Si      -1.17622462       2.86076297       0.80900352
Si      -1.17622462       2.86076297       4.54268242
Si       1.17324560      -2.85575001       4.54268242
Si       6.15370931      -2.11716041       2.67584297
Si       1.77825664       0.85430814       2.67584297
