8
Lattice="5.294748174015964 -1.2055945371507022 -0.031003273005384958 0.006587630837701723 4.7814102937019705 0.24252182243043216 0.7772096051668602 2.055259265393331 6.706421418919979" Properties=species:S:1:pos:R:3 unique_starting_index=84 config_type=initial n_minim_iter=12 energy=-1303.7431245851908 free_energy=-1303.7431245851908 pbc="T T T"
Si       3.78291192       1.78601969       0.11598297
Si       2.29563349       3.84505533       6.80195700
Si       3.77947224      -0.60362796      -0.00438854
Si       2.29907317       6.23470298       6.92232851
Si       0.47779162       6.32757677       5.14094838
Si       5.60075379      -0.69650175       1.77699159
Si       5.76888737       2.73143835       4.98852478
Si       0.30965804       2.89963668       1.92941519
