6
Lattice="3.3795911590729344 0.763368723308198 -1.3795722681136662e-14 0.5459006882870793 5.44594353724824 -2.2000397726507164e-14 2.9495731688546386e-14 3.3836318659992807e-14 9.109076316882506" Properties=species:S:1:pos:R:3 unique_starting_index=22 config_type=initial n_minim_iter=6 energy=-978.6056253708315 free_energy=-978.6056253708315 pbc="T T T"
Si       2.94507888       2.68956141       0.27692750
Si       0.98076247       3.52323754       0.27692750
Si       2.66247204       3.94072032       5.54663863
Si       1.26336931       2.27207864       5.54663863
Si       1.25341217       2.31616094       7.68441705
Si       2.67242918       3.89663802       7.68441705
