20
Lattice="9.383951125014512 0.5203138012061236 1.5403380025829132 -1.7488676122042794 8.8310550488565 -0.016289266671953993 -2.7891243371735843 -3.6934390547908227 5.910548316909873" Properties=species:S:1:pos:R:3 unique_starting_index=76 config_type=initial n_minim_iter=3 energy=-3270.705399190928 free_energy=-3270.705399190928 pbc="T T T"
Si       6.10563049       0.83184246       5.06969427
Si      -2.99560459      -0.23749839       5.57341295
Si       4.42195739       0.32505501       2.12445581
Si       0.42947787       2.94650763       1.63945393
Si       8.90011180       6.02410141       0.65897695
Si       4.73132619       2.43954191       4.89302010
Si      -3.73979542       7.52431198       3.97316679
Si      -1.44518642       0.77760727       4.50258800
Si       6.02696024      -0.37192823       3.35457386
Si      -0.96211102      -0.84785129       5.80690456
Si       4.19068231       0.46228310       4.23560482
Si       2.47695604       3.49635427       1.82122758
Si       1.57250454       2.91459959       3.64561614
Si      -1.37729272       2.75641204       5.36380255
Si       1.14864087       4.73752445       0.68890923
Si       0.81285117       4.70586200       2.80001241
Si       3.13315684       1.61767509       1.04561785
Si       3.52789177       2.12844607       3.10807168
Si       0.15785244       4.12618252       4.75543770
Si       0.28233881       5.87822118       5.94370828
