24
Lattice="8.153960364129853 -4.9358036934028975e-11 1.3588400584071806e-14 4.076980182107671 7.061536816763184 -3.170872544958783e-14 4.076980182079156 2.3538456055713355 10.88322130971787" Properties=species:S:1:pos:R:3 unique_starting_index=24 config_type=initial n_minim_iter=1 energy=-3915.790490661252 free_energy=-3915.790490661252 pbc="T T T"
Si       9.23259399       4.11990744      10.64685503
Si       8.12367842       5.93570722      10.64685503
Si       7.10560747       4.06745827      10.64685503
Si       8.13649145       3.47322920       8.87598999
Si       9.23176947       5.30979369       8.87598999
Si       7.09361896       5.34005004       8.87598999
Si       9.12426571       2.45016907       2.40916082
Si       9.62387840       6.67676136       2.40916082
Si       5.71373576       4.99614250       2.40916082
Si       7.66670362       5.85552938       2.46987532
Si       7.40353091       3.71179541       2.46987532
Si       9.39164534       4.55574815       2.46987532
Si      10.11869687       6.93906559       7.82281279
Si       5.23916440       5.29351575       7.82281279
Si       9.10401860       1.89049160       7.82281279
Si      10.25333313       3.41685921       8.87137226
Si       8.22216647       7.17121736       8.87137226
Si       5.98638027       3.53499636       8.87137226
Si       9.23523646       8.83465169       8.02606426
Si       4.03926889       3.58062354       8.02606426
Si      11.18737452       1.70779770       8.02606426
Si       4.20948961       1.02935435       1.53188806
Si       5.15776773       3.13084777       1.53188806
Si       2.86368198       2.90133400       1.53188806
24
Lattice="8.15317700332164 -4.937483705752651e-11 1.3620934838205657e-14 4.076588501703579 7.060858406402931 -3.170195850874742e-14 4.076588501675056 2.353619468784581 10.883251432565679" Properties=species:S:1:pos:R:3 unique_starting_index=24 config_type=initial n_minim_iter=2 stress="-0.0003285697290237586 -4.2528340406535327e-17 1.5933951538981902e-15 -4.2528340406535327e-17 -0.0003285697290227152 7.371579003799457e-17 1.5933951538981902e-15 7.371579003799457e-17 -0.00030873533037810544" pbc="T T T"
Si       9.23169078       4.11949488      10.64687309
Si       8.12292059       5.93513130      10.64687309
Si       7.10491842       4.06708993      10.64687309
Si       8.13569797       3.47289241       8.87599747
Si       9.23089116       5.30927491       8.87599747
Si       7.09294066       5.33954879       8.87599747
Si       9.12338392       2.44995919       2.40916441
Si       9.62293434       6.67610265       2.40916441
Si       5.71321154       4.99565427       2.40916441
Si       7.66596125       5.85494948       2.46987876
Si       7.40283758       3.71144244       2.46987876
Si       9.39073096       4.55532419       2.46987876
Si      10.11770765       6.93841201       7.82284907
Si       5.23865831       5.29298585       7.82284907
Si       9.10316383       1.89031826       7.82284907
Si      10.25234798       3.41653161       8.87138533
Si       8.22137604       7.17052800       8.87138533
Si       5.98580577       3.53465650       8.87138533
Si       9.23434487       8.83381616       8.02610379
Si       4.03887155       3.58026917       8.02610379
Si      11.18631336       1.70763078       8.02610379
Si       4.20908331       1.02925150       1.53190683
Si       5.15727659       3.13054732       1.53190683
Si       2.86340439       2.90105888       1.53190683
24
Lattice="8.15301928674972 -4.9548164341975916e-11 1.3617812744786624e-14 4.076509643417768 7.06072181984496 -3.169125570474284e-14 4.076509643389146 2.353573939931867 10.889115410597887" Properties=species:S:1:pos:R:3 unique_starting_index=24 config_type=initial n_minim_iter=3 stress="-0.00018298101954547863 -2.9577845024185803e-16 2.0166068469783208e-15 -2.9577845024185803e-16 -0.0001829810195480517 -1.2902670718634345e-15 2.0166068469783208e-15 -1.2902670718634345e-15 0.001927924552244694" pbc="T T T"
Si       9.23132300       4.11902294      10.65239932
Si       8.12319776       5.93504875      10.65239932
Si       7.10453589       4.06737124      10.65239932
Si       8.13530331       3.47274408       8.88046472
Si       9.23090152       5.30900730       8.88046472
Si       7.09285181       5.33969156       8.88046472
Si       9.12306965       2.45034023       2.41042422
Si       9.62244605       6.67563996       2.41042422
Si       5.71354094       4.99546275       2.41042422
Si       7.66567035       5.85452918       2.47114562
Si       7.40303159       3.71140067       2.47114562
Si       9.39035470       4.55551308       2.47114562
Si      10.11722028       6.93857200       7.82731009
Si       5.23844800       5.29248378       7.82731009
Si       9.10338835       1.89038716       7.82731009
Si      10.25215131       3.41647719       8.87596510
Si       8.22120607       7.17038489       8.87596510
Si       5.98569926       3.53458086       8.87596510
Si       9.23411103       8.83388504       8.03073590
Si       4.03861338       3.58003222       8.03073590
Si      11.18633222       1.70752568       8.03073590
Si       4.20892591       1.02917864       1.53300661
Si       5.15726067       3.13044744       1.53300661
Si       2.86334113       2.90109504       1.53300661
24
Lattice="8.15638826102785 -5.0470035594758204e-11 1.3594195583293312e-14 4.078194130557634 7.0636394371540545 -3.169198250549562e-14 4.078194130528479 2.354546479034592 10.878609951628224" Properties=species:S:1:pos:R:3 unique_starting_index=24 config_type=initial n_minim_iter=4 stress="-9.410440200372918e-05 -8.846244706165184e-16 1.8539206466705008e-15 -8.846244706165184e-16 -9.410440200566777e-05 -6.004959862615133e-16 1.8539206466705008e-15 -6.004959862615133e-16 -0.0001542748034176644" pbc="T T T"
Si       9.23397586       4.11836252      10.64081724
Si       8.12918122       5.93767641      10.64081724
Si       7.10600649       4.07123924      10.64081724
Si       8.13726301       3.47379979       8.87031255
Si       9.23574534       5.31017659       8.87031255
Si       7.09615521       5.34330179       8.87031255
Si       9.12612112       2.45374187       2.40788003
Si       9.62471236       6.67658179       2.40788003
Si       5.71833009       4.99695451       2.40788003
Si       7.66798041       5.85528277       2.46838132
Si       7.40796188       3.71302445       2.46838132
Si       9.39322128       4.55897095       2.46838132
Si      10.11971583       6.94312110       7.82120067
Si       5.23999854       5.29237044       7.82120067
Si       9.10944919       1.89178663       7.82120067
Si      10.25630282       3.41796470       8.86636063
Si       8.22458004       7.17323645       8.86636063
Si       5.98828070       3.53607703       8.86636063
Si       9.23764819       8.83886045       8.02473813
Si       4.03927392       3.58060778       8.02473813
Si      11.19224145       1.70780994       8.02473813
Si       4.21037880       1.02940975       1.53286523
Si       5.15970305       3.13159013       1.53286523
Si       2.86449932       2.90263886       1.53286523
24
Lattice="8.1599691548863 -5.112490357237538e-11 1.3603612684670342e-14 4.079984577487425 7.066740582203395 -3.168364898231016e-14 4.079984577457894 2.355580194050821 10.875208063091602" Properties=species:S:1:pos:R:3 unique_starting_index=24 config_type=initial n_minim_iter=5 stress="-4.186461392529348e-05 -5.28279560840368e-16 -2.251915554252507e-16 -5.28279560840368e-16 -4.186461393249961e-05 -1.6384810105823075e-15 -2.251915554252507e-16 -1.6384810105823075e-15 2.883733002445403e-05" pbc="T T T"
Si       9.23545822       4.11872406      10.63693746
Si       8.13528872       5.93877941      10.63693746
Si       7.10915930       4.07597699      10.63693746
Si       8.14010269       3.47618562       8.86635508
Si       9.23942110       5.31144291       8.86635508
Si       7.10038246       5.34585193       8.86635508
Si       9.13008117       2.45649156       2.40696606
Si       9.62751282       6.67863645       2.40696606
Si       5.72231226       4.99835245       2.40696606
Si       7.67082844       5.85717322       2.46727482
Si       7.41206247       3.71454568       2.46727482
Si       9.39701533       4.56176155       2.46727482
Si      10.12307976       6.94769191       7.81979119
Si       5.24151992       5.29299828       7.81979119
Si       9.11530656       1.89279027       7.81979119
Si      10.26000972       3.41927557       8.86274404
Si       8.22875314       7.17579128       8.86274404
Si       5.99114339       3.53841362       8.86274404
Si       9.24150541       8.84318412       8.02354981
Si       4.04076269       3.58178640       8.02354981
Si      11.19763814       1.70850994       8.02354981
Si       4.21218214       1.03004172       1.53310384
Si       5.16183498       3.13283588       1.53310384
Si       2.86593539       2.90386228       1.53310384
24
Lattice="8.161878643472148 -5.1606880569247763e-11 1.361532966447007e-14 4.080939321780766 7.068394247826735 -3.1685915645990116e-14 4.080939321750958 2.3561314159251077 10.873443642613601" Properties=species:S:1:pos:R:3 unique_starting_index=24 config_type=initial n_minim_iter=6 stress="-0.00011537861586135382 -1.6547936090743206e-15 -1.8501831432366788e-15 -1.6547936090743206e-15 -0.00011537861586918073 -3.1764957963279044e-15 -1.8501831432366788e-15 -3.1764957963279044e-15 -0.00014874819869972806" pbc="T T T"
Si       9.23665047       4.11770381      10.63443795
Si       8.13939514       5.94032205      10.63443795
Si       7.10958911       4.07876194      10.63443795
Si       8.14216192       3.47777928       8.86351989
Si       9.24083030       5.31242943       8.86351989
Si       7.10264248       5.34657908       8.86351989
Si       9.13300627       2.45827284       2.40643984
Si       9.62832661       6.68027902       2.40643984
Si       5.72430183       4.99823593       2.40643984
Si       7.67253183       5.85867014       2.46657386
Si       7.41373338       3.71527241       2.46657386
Si       9.39936950       4.56284524       2.46657386
Si      10.12465892       6.94992718       7.81969369
Si       5.24261352       5.29324824       7.81969369
Si       9.11836227       1.89361237       7.81969369
Si      10.26094837       3.41987202       8.86076036
Si       8.23158624       7.17630595       8.86076036
Si       5.99310010       3.54060982       8.86076036
Si       9.24341401       8.84514376       8.02339785
Si       4.04193027       3.58245947       8.02339785
Si      11.20029043       1.70918456       8.02339785
Si       4.21313384       1.03063658       1.53368668
Si       5.16275345       3.13336265       1.53368668
Si       2.86692946       2.90439432       1.53368668
24
Lattice="8.1632814402639 -5.1995716122234615e-11 1.3616734903975801e-14 4.081640720176978 7.069609105484541 -3.168888269657265e-14 4.081640720146945 2.3565363684775797 10.873803334269024" Properties=species:S:1:pos:R:3 unique_starting_index=24 config_type=initial n_minim_iter=7 stress="3.615168317557219e-05 -2.4212805895040736e-15 -4.953664803895518e-16 -2.4212805895040736e-15 3.615168316542709e-05 -2.8366807666307404e-15 -4.953664803895518e-16 -2.8366807666307404e-15 3.5785047006423666e-05" pbc="T T T"
Si       9.23694478       4.11694266      10.63310755
Si       8.14271274       5.94095751      10.63310755
Si       7.11018557       4.08131734      10.63310755
Si       8.14305899       3.47867177       8.86281936
Si       9.24241445       5.31276007       8.86281936
Si       7.10436966       5.34778567       8.86281936
Si       9.13573111       2.45892014       2.40687933
Si       9.62920921       6.68231515       2.40687933
Si       5.72490279       4.99798222       2.40687933
Si       7.67377445       5.86017614       2.46630486
Si       7.41461343       3.71559554       2.46630486
Si       9.40145522       4.56344582       2.46630486
Si      10.12685960       6.95089337       7.82107945
Si       5.24348203       5.29467099       7.82107945
Si       9.11950147       1.89365315       7.82107945
Si      10.26238459       3.42066326       8.86007101
Si       8.23298849       7.17715413       8.86007101
Si       5.99447002       3.54140012       8.86007101
Si       9.24485362       8.84685653       8.02543625
Si       4.04253276       3.58284982       8.02543625
Si      11.20245672       1.70951115       8.02543625
Si       4.21331690       1.03254768       1.53448645
Si       5.16240966       3.13256563       1.53448645
Si       2.86919438       2.90449509       1.53448645
24
Lattice="8.164395775426357 -5.243540010151897e-11 1.3618159979801134e-14 4.082197887758588 7.070574148043341 -3.17022800743647e-14 4.082197887728303 2.356858049330367 10.874331612017862" Properties=species:S:1:pos:R:3 unique_starting_index=24 config_type=initial n_minim_iter=8 stress="0.00017385860931809683 -2.3766408829698556e-15 9.543350353107114e-16 -2.3766408829698556e-15 0.00017385860930597415 -1.9297163769968815e-15 9.543350353107114e-16 -1.9297163769968815e-15 -4.2378283297361386e-05" pbc="T T T"
Si       9.23695849       4.11526769      10.63287237
Si       8.14638512       5.94180687      10.63287237
Si       7.10984249       4.08407304      10.63287237
Si       8.14354761       3.47922857       8.86200714
Si       9.24391661       5.31290482       8.86200714
Si       7.10572189       5.34901420       8.86200714
Si       9.13873998       2.45956111       2.40741690
Si       9.62937834       6.68460043       2.40741690
Si       5.72506778       4.99698605       2.40741690
Si       7.67445639       5.86067605       2.46595917
Si       7.41606820       3.71593617       2.46595917
Si       9.40266151       4.56453537       2.46595917
Si      10.12941026       6.95175311       7.82251750
Si       5.24369082       5.29645006       7.82251750
Si       9.12008503       1.89294443       7.82251750
Si      10.26365995       3.42129773       8.85910139
Si       8.23403001       7.17794139       8.85910139
Si       5.99549614       3.54190847       8.85910139
Si       9.24602011       8.84809085       8.02780801
Si       4.04310923       3.58324288       8.02780801
Si      11.20405676       1.70981387       8.02780801
Si       4.21409828       1.03483119       1.53496056
Si       5.16115572       3.13210057       1.53496056
Si       2.87133844       2.90364168       1.53496056
24
Lattice="8.16524967077786 -5.283113963887482e-11 1.3627391756420498e-14 4.082624835434683 7.071313643109716 -3.1706155021303785e-14 4.082624835404168 2.3571045476856924 10.875918295948921" Properties=species:S:1:pos:R:3 unique_starting_index=24 config_type=initial n_minim_iter=9 stress="0.00011777057568354792 -2.525367375780485e-15 2.6190697497068126e-15 -2.525367375780485e-15 0.00011777057566889499 -3.4054625029602146e-15 2.6190697497068126e-15 -3.4054625029602146e-15 -0.00016147723134326772" pbc="T T T"
Si       9.23697222       4.11416423      10.63293144
Si       8.14904168       5.94237048      10.63293144
Si       7.10973389       4.08609188      10.63293144
Si       8.14379128       3.47986684       8.86287873
Si       9.24494981       5.31279671       8.86287873
Si       7.10700671       5.34996304       8.86287873
Si       9.14122782       2.46031102       2.40816910
Si       9.62919277       6.68638001       2.40816910
Si       5.72532720       4.99593556       2.40816910
Si       7.67465358       5.86046885       2.46584412
Si       7.41785683       3.71621054       2.46584412
Si       9.40323738       4.56594719       2.46584412
Si      10.13173877       6.95264622       7.82439583
Si       5.24346089       5.29802005       7.82439583
Si       9.12054813       1.89196031       7.82439583
Si      10.26410909       3.42190466       8.85944381
Si       8.23498761       7.17802689       8.85944381
Si       5.99665108       3.54269503       8.85944381
Si       9.24694745       8.84876210       8.03039062
Si       4.04377204       3.58371035       8.03039062
Si      11.20502831       1.71015414       8.03039062
Si       4.21496604       1.03643480       1.53597431
Si       5.16018698       3.13205027       1.53597431
Si       2.87272027       2.90282788       1.53597431
24
Lattice="8.166341236897937 -5.3150926144021085e-11 1.362675492598731e-14 4.083170618495001 7.07225896709946 -3.1715883018231345e-14 4.083170618464298 2.357419655682165 10.876968153470157" Properties=species:S:1:pos:R:3 unique_starting_index=24 config_type=initial n_minim_iter=10 stress="6.0073258237107004e-05 -2.9394167922127565e-15 3.349436450578172e-15 -2.9394167922127565e-15 6.007325822720997e-05 -4.324293534864221e-15 3.349436450578172e-15 -4.324293534864221e-15 -0.00024760711905517805" pbc="T T T"
Si       9.23720520       4.11383135      10.63286962
Si       8.15139661       5.94273869      10.63286962
Si       7.11042068       4.08794719      10.63286962
Si       8.14499062       3.47989744       8.86334079
Si       9.24650676       5.31382007       8.86334079
Si       7.10752510       5.35079972       8.86334079
Si       9.14326377       2.46124750       2.40893482
Si       9.62954692       6.68767495       2.40893482
Si       5.72621180       4.99559478       2.40893482
Si       7.67501918       5.86053178       2.46563074
Si       7.41980267       3.71649570       2.46563074
Si       9.40420064       4.56748976       2.46563074
Si      10.13381623       6.95338255       7.82596683
Si       5.24396762       5.29945102       7.82596683
Si       9.12123864       1.89168366       7.82596683
Si      10.26486666       3.42227719       8.85951199
Si       8.23646934       7.17849670       8.85951199
Si       5.99768649       3.54374334       8.85951199
Si       9.24813692       8.84970509       8.03202915
Si       4.04454378       3.58426897       8.03202915
Si      11.20634179       1.71054317       8.03202915
Si       4.21597626       1.03779446       1.53663040
Si       5.15959593       3.13224531       1.53663040
Si       2.87393845       2.90221849       1.53663040
24
Lattice="8.167110831872428 -5.3559566513861304e-11 1.3621787679205218e-14 4.083555415982598 7.072925455897787 -3.1720581541116594e-14 4.083555415951662 2.357641818614804 10.88044377590817" Properties=species:S:1:pos:R:3 unique_starting_index=24 config_type=initial n_minim_iter=11 stress="-8.868672378001452e-05 -3.8988612314980865e-15 3.160494071854103e-15 -3.8988612314980865e-15 -8.86867237918623e-05 -4.4491037440078975e-15 3.160494071854103e-15 -4.4491037440078975e-15 -5.3753174227348e-05" pbc="T T T"
Si       9.23745918       4.11305017      10.63514800
Si       8.15348532       5.94334923      10.63514800
Si       7.11038677       4.08945080      10.63514800
Si       8.14592248       3.48064242       8.86606913
Si       9.24693485       5.31425460       8.86606913
Si       7.10847394       5.35095319       8.86606913
Si       9.14458933       2.46307482       2.41102197
Si       9.62884082       6.68790926       2.41102197
Si       5.72790112       4.99486613       2.41102197
Si       7.67477989       5.86060801       2.46553054
Si       7.42139549       3.71625035       2.46553054
Si       9.40515590       4.56899185       2.46553054
Si      10.13559126       6.95396059       7.82954492
Si       5.24411869       5.30069922       7.82954492
Si       9.12162133       1.89119040       7.82954492
Si      10.26534166       3.42245329       8.86110128
Si       8.23761853       7.17882002       8.86110128
Si       5.99837108       3.54457691       8.86110128
Si       9.24889565       8.85076643       8.03529891
Si       4.04478445       3.58439537       8.03529891
Si      11.20765117       1.71068841       8.03529891
Si       4.21747808       1.03965023       1.53737625
Si       5.15800747       3.13261805       1.53737625
Si       2.87517947       2.90065648       1.53737625
24
Lattice="8.169444626682735 -5.4234288619684653e-11 1.3626998585812129e-14 4.084722313388336 7.074946581490393 -3.1711318455625606e-14 4.08472231335701 2.358315527145448 10.887057120190763" Properties=species:S:1:pos:R:3 unique_starting_index=24 config_type=initial n_minim_iter=12 stress="-0.00022852338611139945 -2.00429831391883e-15 2.481377771738946e-15 -2.00429831391883e-15 -0.00022852338612123463 -4.2353152311286545e-15 2.481377771738946e-15 -4.2353152311286545e-15 0.0003880780251083796" pbc="T T T"
Si       9.23890189       4.11287059      10.63996206
Si       8.15758708       5.94468845      10.63996206
Si       7.11184369       4.09233342      10.63996206
Si       8.14794343       3.48170456       8.87112601
Si       9.24967213       5.31547372       8.87112601
Si       7.11071710       5.35271418       8.87112601
Si       9.14911338       2.46657397       2.41498109
Si       9.62821603       6.69007763       2.41498109
Si       5.73100325       4.99324086       2.41498109
Si       7.67546704       5.86219176       2.46508597
Si       7.42434793       3.71605357       2.46508597
Si       9.40851768       4.57164714       2.46508597
Si      10.13962514       6.95567890       7.83640385
Si       5.24528124       5.30333351       7.83640385
Si       9.12342628       1.89088005       7.83640385
Si      10.26766845       3.42385028       8.86440138
Si       8.23991289       7.18013657       8.86440138
Si       6.00075132       3.54590560       8.86440138
Si       9.25149569       8.85395346       8.04084534
Si       4.04539198       3.58505356       8.04084534
Si      11.21144500       1.71088544       8.04084534
Si       4.22191296       1.04202342       1.53906594
Si       5.15606858       3.13527216       1.53906594
Si       2.87618418       2.89765029       1.53906594
24
Lattice="8.172332907605407 -5.550056176257317e-11 1.3641732209658593e-14 4.086166453850769 7.077447906142061 -3.1685575263486046e-14 4.086166453818711 2.3591493020289147 10.900627540301729" Properties=species:S:1:pos:R:3 unique_starting_index=24 config_type=initial n_minim_iter=13 stress="7.762191541825664e-05 -2.528659995912107e-15 3.56512884938973e-15 -2.528659995912107e-15 7.762191541107779e-05 -3.134147279752203e-15 3.56512884938973e-15 -3.134147279752203e-15 6.895693033475031e-05" pbc="T T T"
Si       9.24058472       4.11179619      10.64938798
Si       8.16345269       5.94668302      10.64938798
Si       7.11296010       4.09641590      10.64938798
Si       8.14903667       3.48376156       8.88032818
Si       9.25312066       5.31539199       8.88032818
Si       7.11484017       5.35574156       8.88032818
Si       9.15513013       2.46920591       2.42641123
Si       9.62870489       6.69397231       2.42641123
Si       5.73316248       4.99171689       2.42641123
Si       7.67511533       5.86289707       2.46253609
Si       7.42968953       3.71539632       2.46253609
Si       9.41219264       4.57660172       2.46253609
Si      10.14388052       6.95836006       7.85165972
Si       5.24660816       5.30567820       7.85165972
Si       9.12650882       1.89085685       7.85165972
Si      10.26972750       3.42648964       8.87159287
Si       8.24237418       7.18060008       8.87159287
Si       6.00489582       3.54780539       8.87159287
Si       9.25410639       8.85615205       8.05136454
Si       4.04795915       3.58621520       8.05136454
Si      11.21493196       1.71252786       8.05136454
Si       4.23103977       1.04795319       1.54175214
Si       5.14925813       3.14021133       1.54175214
Si       2.87820025       2.88928269       1.54175214
24
Lattice="8.195106418463588 -6.391536263734753e-11 1.356306129816341e-14 4.097553209287145 7.0971703450743995 -3.159360723889546e-14 4.097553209250232 2.365723448336889 10.980144773112343" Properties=species:S:1:pos:R:3 unique_starting_index=24 config_type=initial n_minim_iter=14 stress="0.0048191148019725355 -3.289148402754309e-16 4.809597236289678e-15 -3.289148402754309e-16 0.004819114801970099 -2.930766825995429e-15 4.809597236289678e-15 -2.930766825995429e-15 -0.0017013134329691732" pbc="T T T"
Si       9.25417340       4.10555844      10.69759731
Si       8.20760742       5.96157003      10.69759731
Si       7.12353722       4.12721151      10.69759731
Si       8.16736906       3.49922991       8.93394191
Si       9.27610549       5.32353413       8.93394191
Si       7.14184348       5.37157594       8.93394191
Si       9.20189416       2.48777154       2.50072047
Si       9.63479159       6.72518834       2.50072047
Si       5.74863228       4.98138011       2.50072047
Si       7.68262563       5.87094351       2.44182381
Si       7.46451299       3.71787721       2.44182381
Si       9.43817942       4.60551927       2.44182381
Si      10.17821279       6.98249705       7.94377040
Si       5.25408580       5.32334232       7.94377040
Si       9.15301944       1.88850062       7.94377040
Si      10.29608864       3.43918914       8.91020178
Si       8.26374254       7.19707975       8.91020178
Si       6.02548685       3.55807109       8.91020178
Si       9.27562337       8.87683251       8.11531613
Si       4.06483788       3.59450923       8.11531613
Si      11.24485678       1.72299825       8.11531613
Si       4.29452016       1.08385860       1.56175977
Si       5.10919645       3.17723425       1.56175977
Si       2.88894180       2.83607679       1.56175977
24
Lattice="8.200967554993136 -6.63301101643448e-11 1.3621905788272812e-14 4.100483777554013 7.102246238202829 -3.128607781198136e-14 4.100483777515706 2.367415412712227 11.005393998215887" Properties=species:S:1:pos:R:3 unique_starting_index=24 config_type=initial n_minim_iter=15 stress="0.006658066375605784 -1.744454043172495e-15 5.356679373236589e-15 -1.744454043172495e-15 0.00665806637560145 -2.4656629057765426e-15 5.356679373236589e-15 -2.4656629057765426e-15 -0.0008516638548409616" pbc="T T T"
Si       9.25729365       4.10340559      10.71364473
Si       8.21963398       5.96534868      10.71364473
Si       7.12597380       4.13573750      10.71364473
Si       8.17209816       3.50307277       8.95129304
Si       9.28213521       5.32570822       8.95129304
Si       7.14866807       5.37571078       8.95129304
Si       9.21418428       2.49299536       2.52384474
Si       9.63584484       6.73321999       2.52384474
Si       5.75287231       4.97827643       2.52384474
Si       7.68449793       5.87299919       2.43567440
Si       7.47351883       3.71847083       2.43567440
Si       9.44488468       4.61302175       2.43567440
Si      10.18745484       6.98902530       7.97190478
Si       5.25553341       5.32808204       7.97190478
Si       9.15991318       1.88738443       7.97190478
Si      10.30279583       3.44308941       8.92371063
Si       8.26873348       7.20093821       8.92371063
Si       6.03137213       3.56046414       8.92371063
Si       9.28109580       8.88230889       8.13493635
Si       4.06908125       3.59651030       8.13493635
Si      11.25272439       1.72567258       8.13493635
Si       4.31347469       1.09386447       1.56764093
Si       5.09691498       3.18864642       1.56764093
Si       2.89106044       2.81973464       1.56764093
24
Lattice="8.21040700325621 -7.270487808879866e-11 1.3774139184840495e-14 4.105203501691071 7.110421040193168 -3.080671063049965e-14 4.105203501649082 2.370140346706883 11.104993336590939" Properties=species:S:1:pos:R:3 unique_starting_index=24 config_type=initial n_minim_iter=16 stress="0.017558597511106507 -1.0374357080848725e-15 5.964313443575428e-15 -1.0374357080848725e-15 0.0175585975111014 -1.8686857785774396e-15 5.964313443575428e-15 -1.8686857785774396e-15 0.004731692145669782" pbc="T T T"
Si       9.26264426       4.09992361      10.78278322
Si       8.23885306       5.97172343      10.78278322
Si       7.12972246       4.14919433      10.78278322
Si       8.18258273       3.51005014       9.02355245
Si       9.28972923       5.33129945       9.02355245
Si       7.15890781       5.37949179       9.02355245
Si       9.23714766       2.50075659       2.62719711
Si       9.63652062       6.74922624       2.62719711
Si       5.75755150       4.97085854       2.62719711
Si       7.68829973       5.87571363       2.40502116
Si       7.48814605       3.72040607       2.40502116
Si       9.45477400       4.62472168       2.40502116
Si      10.20395614       7.00587267       8.07600987
Si       5.25157141       5.33394890       8.07600987
Si       9.17569223       1.88101980       8.07600987
Si      10.32083293       3.45269789       8.98763886
Si       8.27027264       7.21175456       8.98763886
Si       6.04011422       3.55638892       8.98763886
Si       9.28717169       8.88822550       8.19845961
Si       4.07979826       3.59881386       8.19845961
Si      11.26424983       1.73380201       8.19845961
Si       4.39232083       1.11548145       1.58555472
Si       5.04821050       3.24612070       1.58555472
Si       2.87507795       2.74881818       1.58555472
24
Lattice="8.177318728773 -7.059660492795106e-11 1.3942864535303883e-14 4.08865936444764 7.081765753924372 -3.0058298010258174e-14 4.08865936440687 2.3605885846179873 11.138164041877982" Properties=species:S:1:pos:R:3 unique_starting_index=24 config_type=initial n_minim_iter=17 stress="0.009679339612961335 -3.9086161531977e-15 6.482918742030921e-15 -3.9086161531977e-15 0.009679339612950937 -2.7678142019313594e-15 6.482918742030921e-15 -2.7678142019313594e-15 -0.0025113651723940615" pbc="T T T"
Si       9.23365417       4.09383076      10.81585628
Si       8.19244812       5.94966370      10.81585628
Si       7.10585267       4.12003634      10.81585628
Si       8.16140438       3.48670970       9.05365723
Si       9.25435528       5.32462868       9.05365723
Si       7.11619530       5.35219243       9.05365723
Si       9.18236478       2.48509191       2.67781573
Si       9.61130153       6.70961521       2.67781573
Si       5.73828866       4.96882368       2.67781573
Si       7.67676176       5.86173608       2.38515261
Si       7.43984341       3.71740266       2.38515261
Si       9.41534980       4.58439206       2.38515261
Si      10.16426426       6.99177114       8.09191631
Si       5.21745309       5.30662549       8.09191631
Si       9.15023761       1.86513418       8.09191631
Si      10.28913527       3.44592462       9.03432765
Si       8.22581074       7.18769022       9.03432765
Si       6.01700895       3.52991596       9.03432765
Si       9.25411843       8.85851409       8.19707666
Si       4.05587918       3.58504461       8.19707666
Si      11.22195735       1.71997210       8.19707666
Si       4.41650697       1.09228437       1.58480169
Si       5.02311842       3.27866505       1.58480169
Si       2.82635148       2.71081563       1.58480169
24
Lattice="8.175549470994023 -7.608153949925387e-11 1.4004547427501577e-14 4.087774735562903 7.080233531739191 -2.976061696655369e-14 4.087774735518964 2.3600778438877654 11.19387799463815" Properties=species:S:1:pos:R:3 unique_starting_index=24 config_type=initial n_minim_iter=18 stress="0.007588346869876738 -2.0280099611790362e-15 7.61651730266395e-15 -2.0280099611790362e-15 0.007588346869862186 -2.781103133016833e-15 7.61651730266395e-15 -2.781103133016833e-15 0.004529416391824731" pbc="T T T"
Si       9.22330858       4.07843209      10.85660869
Si       8.20741804       5.94840349      10.85660869
Si       7.09592057       4.13363078      10.85660869
Si       8.15474219       3.48457405       9.09374249
Si       9.25599738       5.31992687       9.09374249
Si       7.11590762       5.35596544       9.09374249
Si       9.18275393       2.50135142       2.72366240
Si       9.59348729       6.70182247       2.72366240
Si       5.75040597       4.95729247       2.72366240
Si       7.66880822       5.86293072       2.37162612
Si       7.43924708       3.70991738       2.37162612
Si       9.41859189       4.58761826       2.37162612
Si      10.17068796       6.99351885       8.14403000
Si       5.20918916       5.31131472       8.14403000
Si       9.14677007       1.85563279       8.14403000
Si      10.28131852       3.44356477       9.06940432
Si       8.22822429       7.18210064       9.06940432
Si       6.01710438       3.53480095       9.06940432
Si       9.25189231       8.85779209       8.24040423
Si       4.05407900       3.58347773       8.24040423
Si      11.22067587       1.71919654       8.24040423
Si       4.45361490       1.10220684       1.60043660
Si       4.99420209       3.30584023       1.60043660
Si       2.81550600       2.67218577       1.60043660
24
Lattice="8.16739162384542 -7.965898832266521e-11 1.3896176639136281e-14 4.083695811991702 7.0731686288665205 -2.955454648733392e-14 4.083695811945699 2.3577228762623506 11.200376464830484" Properties=species:S:1:pos:R:3 unique_starting_index=24 config_type=initial n_minim_iter=19 stress="-0.00986790381646622 -1.5679469720273419e-15 8.819401443282925e-15 -1.5679469720273419e-15 -0.009867903816475544 -2.9938427184618696e-15 8.819401443282925e-15 -2.9938427184618696e-15 -0.00017150202343264523" pbc="T T T"
Si       9.20623667       4.05907054      10.86763576
Si       8.21640590       5.94329956      10.86763576
Si       7.07953108       4.14396646      10.86763576
Si       8.13555579       3.48104649       9.09791780
Si       9.25232985       5.30507475       9.09791780
Si       7.11428801       5.36021532       9.09791780
Si       9.16516860       2.52357351       2.72027413
Si       9.56671936       6.67548208       2.72027413
Si       5.77028568       4.94728096       2.72027413
Si       7.65561951       5.86351721       2.36481566
Si       7.42901782       3.69820237       2.36481566
Si       9.41753632       4.58461698       2.36481566
Si      10.17018500       6.97666268       8.14014597
Si       5.20772282       5.31930723       8.14014597
Si       9.12426583       1.85036665       8.14014597
Si      10.25917162       3.42478211       9.07237031
Si       8.23924832       7.17231220       9.07237031
Si       6.00375371       3.54924225       9.07237031
Si       9.24668205       8.85356804       8.25366156
Si       4.04402657       3.58107754       8.25366156
Si      11.21146502       1.71169098       8.25366156
Si       4.46579403       1.10071618       1.61333965
Si       4.98124562       3.31713299       1.61333965
Si       2.80404657       2.65531876       1.61333965
24
Lattice="8.165012319809888 -8.209035562728505e-11 1.3987816102015031e-14 4.082506159976044 7.071108091127211 -2.9236172769894346e-14 4.082506159928637 2.357036030348438 11.242516473697838" Properties=species:S:1:pos:R:3 unique_starting_index=24 config_type=initial n_minim_iter=20 stress="-0.004134002252040975 5.822264460467025e-16 9.161685474748993e-15 5.822264460467025e-16 -0.004134002252048627 -2.984573323145176e-15 9.161685474748993e-15 -2.984573323145176e-15 0.005373452452239334" pbc="T T T"
Si       9.20222510       4.05471200      10.90122713
Si       8.21742768       5.94200471      10.90122713
Si       7.07538296       4.14549877      10.90122713
Si       8.13187584       3.48118858       9.13026316
Si       9.24928816       5.30181677       9.13026316
Si       7.11387174       5.35921013       9.13026316
Si       9.16241879       2.52938497       2.76737447
Si       9.55830279       6.67019494       2.76737447
Si       5.77431416       4.94263557       2.76737447
Si       7.65234992       5.86193269       2.34556304
Si       7.42726624       3.69616308       2.34556304
Si       9.41541958       4.58411971       2.34556304
Si      10.17215389       6.97286194       8.17837450
Si       5.20527131       5.32291271       8.17837450
Si       9.11761054       1.84644083       8.17837450
Si      10.25607812       3.42120021       9.10264671
Si       8.23913847       7.17142409       9.10264671
Si       5.99981915       3.54959117       9.10264671
Si       9.24522221       8.85090906       8.27861932
Si       4.04230062       3.58114277       8.27861932
Si      11.20751290       1.71016365       8.27861932
Si       4.50374792       1.10787514       1.62222567
Si       4.95368953       3.34642255       1.62222567
Si       2.79007980       2.61680970       1.62222567
24
Lattice="8.161319493820985 -8.31301839219818e-11 1.3950680466295071e-14 4.080659746982493 7.067910010008546 -2.9360748203511225e-14 4.080659746934484 2.3559700033085367 11.256979348494408" Properties=species:S:1:pos:R:3 unique_starting_index=24 config_type=initial n_minim_iter=21 stress="0.0024424527705453067 4.715537808212414e-16 8.869930036781857e-15 4.715537808212414e-16 0.0024424527705370126 -2.7559523019706263e-15 8.869930036781857e-15 -2.7559523019706263e-15 0.00365360718794448" pbc="T T T"
Si       9.19799161       4.05247835      10.91190716
Si       8.21409317       5.93945522      10.91190716
Si       7.07187248       4.14388575      10.91190716
Si       8.12862602       3.47962739       9.14294483
Si       9.24487945       5.29978294       9.14294483
Si       7.11045179       5.35640899       9.14294483
Si       9.15876437       2.52776732       2.80220012
Si       9.55414528       6.66783895       2.80220012
Si       5.77104761       4.94021305       2.80220012
Si       7.64854600       5.85690745       2.31764697
Si       7.42613453       3.69538141       2.31764697
Si       9.40927673       4.58353046       2.31764697
Si      10.17180635       6.96541042       8.18864852
Si       5.20451263       5.32633749       8.18864852
Si       9.10763829       1.84407141       8.18864852
Si      10.25271334       3.41613436       9.11722403
Si       8.23782237       7.17104303       9.11722403
Si       5.99342155       3.54864193       9.11722403
Si       9.24348487       8.84824347       8.28307860
Si       4.03809211       3.58097098       8.28307860
Si      11.20238028       1.70660486       8.28307860
Si       4.53678808       1.11544777       1.62995865
Si       4.92691853       3.37124984       1.62995865
Si       2.77827141       2.58121169       1.62995865
