8
Lattice="6.392878358418034 0.9383464925744925 0.7412532928906106 2.820555961492557 5.81324796596075 0.741253292889577 2.8205559614917926 2.0669002826072314 5.483724243589284" Properties=species:S:1:pos:R:3 unique_starting_index=42 config_type=initial n_minim_iter=17 energy=-1304.0834080833702 free_energy=-1304.0834080833702 pbc="T T T"
Si       8.25498984       6.04957031       2.53432997
Si       8.25529774       3.86587866       5.29811551
Si       6.17313565       6.70693845       5.29852427
Si       9.65101295       7.07236098       4.05809627
Si       9.65111725       5.58509398       5.94063526
Si       8.23296817       7.52023463       5.94077372
Si       8.00478640       5.86589861       4.63380712
Si       1.97107357       1.44440053       1.14101418
