20
Lattice="8.564951981583729 -1.740916038459768e-49 -4.644910599104654e-33 9.37553115042128e-49 6.549218606412631 1.4833296125699115e-15 3.224235772476416e-33 -1.346550188315808e-15 5.945308091373843" Properties=species:S:1:pos:R:3 unique_starting_index=96 config_type=initial n_minim_iter=1 energy=-3255.7132419420927 free_energy=-3255.7132419420927 pbc="T T T"
Si       7.10394217       3.89264637       2.15263439
Si       1.46100982       2.65657224       2.15263439
Si       5.29789475       1.29667986       4.42589692
Si       3.26705723       5.25253875       4.42589692
Si       5.74348581       0.61803706       2.15263439
Si       2.82146618       5.93118154       2.15263439
Si       7.54953322       4.57128916       4.42589692
Si       1.01541876       1.97792945       4.42589692
Si       2.98795524       0.96681186       5.26826030
Si       5.57699674       5.58240674       5.26826030
Si       0.72593573       4.91050870       1.60768221
Si       7.83901625       1.63870990       1.60768221
Si       1.29452075       4.24142117       5.26826030
Si       7.27043123       2.30779744       5.26826030
Si       3.55654026       1.63589940       1.60768221
Si       5.00841172       4.91331921       1.60768221
Si      -0.00000000       0.00000000       5.90433255
Si      -0.00000000       6.54921861       3.39177687
Si       4.28247599       3.27460930       5.90433255
Si       4.28247599       3.27460930       3.39177687
20
Lattice="8.567768763382457 -1.7387254094211813e-49 -4.646565946559186e-33 9.378084430890314e-49 6.5498910000652035 1.4834264547429072e-15 3.22433225671196e-33 -1.346677861920301e-15 5.945649559227193" Properties=species:S:1:pos:R:3 unique_starting_index=96 config_type=initial n_minim_iter=2 stress="0.0003063577664529202 -3.19433415654416e-17 -1.652486246842557e-17 -3.19433415654416e-17 0.00039544446588448545 8.591769195250314e-17 -1.652486246842557e-17 8.591769195250314e-17 0.0002716593598972537" pbc="T T T"
Si       7.10631371       3.89303073       2.15273488
Si       1.46145505       2.65686027       2.15273488
Si       5.29962443       1.29681875       4.42612580
Si       3.26814433       5.25307225       4.42612580
Si       5.74533944       0.61808523       2.15273488
Si       2.82242933       5.93180577       2.15273488
Si       7.55202872       4.57176425       4.42612580
Si       1.01574005       1.97812675       4.42612580
Si       2.98896171       0.96692777       5.26853951
Si       5.57880705       5.58296323       5.26853951
Si       0.72625717       4.91096989       1.60785573
Si       7.84151159       1.63892111       1.60785573
Si       1.29492267       4.24187327       5.26853951
Si       7.27284609       2.30801773       5.26853951
Si       3.55762721       1.63602439       1.60785573
Si       5.01014156       4.91386661       1.60785573
Si      -0.00000000       0.00000000       5.90471597
Si      -0.00000000       6.54989100       3.39190869
Si       4.28388438       3.27494550       5.90471597
Si       4.28388438       3.27494550       3.39190869
20
Lattice="8.577304017044861 -1.7434654652887613e-49 -4.649699431835736e-33 9.381678401087613e-49 6.542743653472626 1.4841013644681586e-15 3.222997773885299e-33 -1.3434476202906347e-15 5.940580726454132" Properties=species:S:1:pos:R:3 unique_starting_index=96 config_type=initial n_minim_iter=3 stress="0.0009162837075538962 -6.610451611434767e-17 -9.499386393720346e-17 -6.610451611434767e-17 -0.0010931829916492628 1.0928991200885971e-16 -9.499386393720346e-17 1.0928991200885971e-16 -0.0009661348656917108" pbc="T T T"
Si       7.11481405       3.88856718       2.15050730
Si       1.46248996       2.65417647       2.15050730
Si       5.30534164       1.29553746       4.42198275
Si       3.27196238       5.24720619       4.42198275
Si       5.75114197       0.61719535       2.15050730
Si       2.82616205       5.92554830       2.15050730
Si       7.56061439       4.56690929       4.42198275
Si       1.01668963       1.97583437       4.42198275
Si       2.99269443       0.96616257       5.26362561
Si       5.58460959       5.57658109       5.26362561
Si       0.72844430       4.90493851       1.60781422
Si       7.84885971       1.63780515       1.60781422
Si       1.29595758       4.23753439       5.26362561
Si       7.28134644       2.30520926       5.26362561
Si       3.56020770       1.63356668       1.60781422
Si       5.01709631       4.90917697       1.60781422
Si      -0.00000000       0.00000000       5.90039201
Si      -0.00000000       6.54274365       3.38801715
Si       4.28865201       3.27137183       5.90039201
Si       4.28865201       3.27137183       3.38801715
20
Lattice="8.573905177833973 -1.7541773038300823e-49 -4.6497181486634795e-33 9.363926935428572e-49 6.545367233665099 1.4829315786436244e-15 3.224189641911232e-33 -1.3460869814391118e-15 5.945161686844119" Properties=species:S:1:pos:R:3 unique_starting_index=96 config_type=initial n_minim_iter=4 stress="-0.00016025465128102954 2.1463155887555296e-17 -1.0039481002192514e-16 2.1463155887555296e-17 -0.0008453484224899788 1.233291060584727e-16 -1.0039481002192514e-16 1.233291060584727e-16 0.0016191980615840702" pbc="T T T"
Si       7.11397542       3.88968928       2.15066349
Si       1.45992976       2.65567796       2.15066349
Si       5.30275261       1.29666823       4.42433808
Si       3.27115257       5.24869900       4.42433808
Si       5.74688235       0.61700566       2.15066349
Si       2.82702283       5.92836158       2.15066349
Si       7.55810516       4.56935185       4.42433808
Si       1.01580002       1.97601538       4.42433808
Si       2.99281666       0.96776563       5.26603864
Si       5.58108852       5.57760160       5.26603864
Si       0.73296879       4.90481300       1.61377037
Si       7.84093639       1.64055424       1.61377037
Si       1.29413593       4.24044925       5.26603864
Si       7.27976925       2.30491799       5.26603864
Si       3.55398380       1.63212938       1.61377037
Si       5.01992138       4.91323785       1.61377037
Si      -0.00000000       0.00000000       5.90739078
Si      -0.00000000       6.54536723       3.38715358
Si       4.28695259       3.27268362       5.90739078
Si       4.28695259       3.27268362       3.38715358
20
Lattice="8.57188326383291 -1.8140644210275455e-49 -4.6448956937913915e-33 9.435707315202006e-49 6.555368023889128 1.50313066238368e-15 3.221540656428428e-33 -1.3276774320819913e-15 5.93550758577663" Properties=species:S:1:pos:R:3 unique_starting_index=96 config_type=initial n_minim_iter=5 stress="-0.00022389012044417698 -8.0056042956927e-17 -5.656058415629328e-17 -8.0056042956927e-17 0.00024401340562812574 2.915709577051754e-16 -5.656058415629328e-17 2.915709577051754e-16 0.0003117923287270451" pbc="T T T"
Si       7.11290388       3.89573328       2.14676382
Si       1.45897938       2.65963475       2.14676382
Si       5.30143384       1.29890149       4.41689640
Si       3.27044943       5.25646653       4.41689640
Si       5.74492101       0.61804927       2.14676382
Si       2.82696225       5.93731876       2.14676382
Si       7.55639106       4.57658551       4.41689640
Si       1.01549220       1.97878252       4.41689640
Si       2.99245209       0.96969891       5.25699727
Si       5.57943118       5.58566912       5.25699727
Si       0.73413360       4.91192448       1.61235130
Si       7.83774967       1.64344354       1.61235130
Si       1.29348955       4.24738292       5.25699727
Si       7.27839372       2.30798510       5.25699727
Si       3.55180803       1.63424047       1.61235130
Si       5.02007523       4.92112756       1.61235130
Si      -0.00000000       0.00000000       5.89861165
Si      -0.00000000       6.55536802       3.38074583
Si       4.28594163       3.27768401       5.89861165
Si       4.28594163       3.27768401       3.38074583
20
Lattice="8.579993597913735 -1.820194631773211e-49 -4.647354296573263e-33 9.453109393235179e-49 6.551625758009135 1.506496587577602e-15 3.220101808046584e-33 -1.322684337982089e-15 5.930372163325659" Properties=species:S:1:pos:R:3 unique_starting_index=96 config_type=initial n_minim_iter=6 stress="0.00038773845147978156 -2.33125765791809e-16 -3.040757175127291e-16 -2.33125765791809e-16 -0.00011469877193295121 2.5226744506944724e-16 -3.040757175127291e-16 2.5226744506944724e-16 -0.0009621816989759166" pbc="T T T"
Si       7.12041277       3.89532845       2.14446391
Si       1.45958083       2.65629731       2.14446391
Si       5.30720632       1.29863858       4.41464352
Si       3.27278727       5.25298718       4.41464352
Si       5.74957763       0.61951557       2.14446391
Si       2.83041597       5.93211019       2.14446391
Si       7.56278407       4.57445145       4.41464352
Si       1.01720953       1.97717430       4.41464352
Si       2.99476339       0.96950849       5.25130290
Si       5.58523021       5.58211726       5.25130290
Si       0.73364091       4.91116017       1.60959778
Si       7.84635269       1.64046559       1.60959778
Si       1.29523341       4.24532137       5.25130290
Si       7.28476019       2.30630438       5.25130290
Si       3.55635589       1.63534729       1.60959778
Si       5.02363771       4.91627847       1.60959778
Si      -0.00000000       0.00000000       5.89482540
Si      -0.00000000       6.55162576       3.37926036
Si       4.28999680       3.27581288       5.89482540
Si       4.28999680       3.27581288       3.37926036
20
Lattice="8.603366156091717 -1.8273127132594804e-49 -4.653719740265989e-33 9.481689187748068e-49 6.552049986834273 1.510066397295111e-15 3.215269916853711e-33 -1.3156320766331678e-15 5.913389440023849" Properties=species:S:1:pos:R:3 unique_starting_index=96 config_type=initial n_minim_iter=7 stress="0.0010575948905813895 -2.3847406896305907e-16 -2.1154104928795917e-16 -2.3847406896305907e-16 -4.9606044172340555e-05 2.3997157254372937e-16 -2.1154104928795917e-16 2.3997157254372937e-16 -0.00018656631851588821" pbc="T T T"
Si       7.14954321       3.90229739       2.13172181
Si       1.45382295       2.64975259       2.13172181
Si       5.32317328       1.30228319       4.40567293
Si       3.28019288       5.24976680       4.40567293
Si       5.75550603       0.62627240       2.13172181
Si       2.84786013       5.92577759       2.13172181
Si       7.58187596       4.57830818       4.40567293
Si       1.02149020       1.97374181       4.40567293
Si       3.00533722       0.97457873       5.22666662
Si       5.59802893       5.57747125       5.22666662
Si       0.74549991       4.91331413       1.61321116
Si       7.85786625       1.63873586       1.61321116
Si       1.29634586       4.25060373       5.22666662
Si       7.30702030       2.30144626       5.22666662
Si       3.55618317       1.63728914       1.61321116
Si       5.04718298       4.91476085       1.61321116
Si      -0.00000000       0.00000000       5.88965220
Si      -0.00000000       6.55204999       3.36648529
Si       4.30168308       3.27602499       5.88965220
Si       4.30168308       3.27602499       3.36648529
20
Lattice="8.602262541773278 -1.851262671221005e-49 -4.651490689242225e-33 9.547436446807267e-49 6.558694966212395 1.524807468050637e-15 3.212611784109553e-33 -1.3019852023447438e-15 5.906402765451519" Properties=species:S:1:pos:R:3 unique_starting_index=96 config_type=initial n_minim_iter=8 stress="-0.0012955680423382128 -1.749939788861165e-16 -2.835697791833606e-16 -1.749939788861165e-16 0.00013176913487890704 2.52829589095162e-16 -2.835697791833606e-16 2.52829589095162e-16 0.0004483365672370364" pbc="T T T"
Si       7.15404102       3.91036903       2.12520857
Si       1.44822152       2.64832594       2.12520857
Si       5.32291828       1.30462324       4.40287628
Si       3.27934426       5.25407173       4.40287628
Si       5.74935279       0.63102155       2.12520857
Si       2.85290975       5.92767342       2.12520857
Si       7.58047553       4.58397072       4.40287628
Si       1.02178701       1.97472425       4.40287628
Si       3.00687122       0.97764186       5.21594474
Si       5.59539132       5.58105311       5.21594474
Si       0.75113695       4.91838724       1.61499763
Si       7.85112559       1.64030773       1.61499763
Si       1.29426005       4.25698934       5.21594474
Si       7.30800249       2.30170563       5.21594474
Si       3.54999432       1.63903976       1.61499763
Si       5.05226822       4.91965521       1.61499763
Si      -0.00000000       0.00000000       5.88679041
Si      -0.00000000       6.55869497       3.36329103
Si       4.30113127       3.27934748       5.88679041
Si       4.30113127       3.27934748       3.36329103
20
Lattice="8.623437868543355 -1.8531059636155948e-49 -4.6600119632916124e-33 9.435583727599535e-49 6.555965395131444 1.5030187939254282e-15 3.2081641354243554e-33 -1.3184562909902244e-15 5.894426140277836" Properties=species:S:1:pos:R:3 unique_starting_index=96 config_type=initial n_minim_iter=9 stress="-0.00020707227050396058 -3.141689794009667e-16 -3.1461488133325634e-16 -3.141689794009667e-16 -0.00010347987537685747 2.4382225034457994e-16 -3.1461488133325634e-16 2.4382225034457994e-16 -0.0001411814163467596" pbc="T T T"
Si       7.17909917       3.91599991       2.11527851
Si       1.44433870       2.63996548       2.11527851
Si       5.33679691       1.30347603       4.39843869
Si       3.28664096       5.25248936       4.39843869
Si       5.75605764       0.63801721       2.11527851
Si       2.86738023       5.91794818       2.11527851
Si       7.59835989       4.58145873       4.39843869
Si       1.02507797       1.97450666       4.39843869
Si       3.01730149       0.97847555       5.20073470
Si       5.60613638       5.57748985       5.20073470
Si       0.75955236       4.91604811       1.61350808
Si       7.86388551       1.63991729       1.61350808
Si       1.29441744       4.25645824       5.20073470
Si       7.32902042       2.29950715       5.20073470
Si       3.55216658       1.63806541       1.61350808
Si       5.07127129       4.91789998       1.61350808
Si      -0.00000000       0.00000000       5.87632515
Si      -0.00000000       6.55596540       3.36295688
Si       4.31171893       3.27798270       5.87632515
Si       4.31171893       3.27798270       3.36295688
20
Lattice="8.636265379848671 -1.7297771504446194e-49 -4.6680867809650394e-33 9.792004316308414e-49 6.553444269192857 1.5513961146425392e-15 3.205197806073289e-33 -1.2731021765756922e-15 5.890402640512735" Properties=species:S:1:pos:R:3 unique_starting_index=96 config_type=initial n_minim_iter=10 stress="0.0009323803907844719 -1.8132911508348448e-16 -2.837180377087273e-16 -1.8132911508348448e-16 0.0004922091208544368 1.436243917422558e-16 -2.837180377087273e-16 1.436243917422558e-16 0.00023321780530746514" pbc="T T T"
Si       7.19313470       3.91886125       2.11178065
Si       1.44313068       2.63458302       2.11178065
Si       5.34697505       1.30189086       4.39548881
Si       3.28929032       5.25155340       4.39548881
Si       5.76126337       0.64213911       2.11178065
Si       2.87500201       5.91130516       2.11178065
Si       7.60742301       4.57861300       4.39548881
Si       1.02884237       1.97483127       4.39548881
Si       3.02194666       0.97966074       5.19546601
Si       5.61431872       5.57378353       5.19546601
Si       0.76570221       4.91399906       1.61523785
Si       7.87056317       1.63944521       1.61523785
Si       1.29618603       4.25638287       5.19546601
Si       7.34007935       2.29706140       5.19546601
Si       3.55243048       1.63727693       1.61523785
Si       5.08383490       4.91616734       1.61523785
Si      -0.00000000       0.00000000       5.87594921
Si      -0.00000000       6.55344427       3.35880428
Si       4.31813269       3.27672213       5.87594921
Si       4.31813269       3.27672213       3.35880428
20
Lattice="8.636917476403097 -1.6413503653892072e-49 -4.672178806091614e-33 9.97672211532525e-49 6.548461342915017 1.5743508545897088e-15 3.203602527804674e-33 -1.251717417170912e-15 5.892243572099516" Properties=species:S:1:pos:R:3 unique_starting_index=96 config_type=initial n_minim_iter=11 stress="-6.622117636713285e-05 -4.190113878596074e-16 -2.187900408994889e-16 -4.190113878596074e-16 -0.00021154632543685716 2.483620972840832e-16 -2.187900408994889e-16 2.483620972840832e-16 0.00010021541635721403" pbc="T T T"
Si       7.19561168       3.92007660       2.11149270
Si       1.44130580       2.62838474       2.11149270
Si       5.34917422       1.29867035       4.39735240
Si       3.28774326       5.24979099       4.39735240
Si       5.75976454       0.64584593       2.11149270
Si       2.87715294       5.90261541       2.11149270
Si       7.60620200       4.57290102       4.39735240
Si       1.03071548       1.97556032       4.39735240
Si       3.02210547       0.97944111       5.19753481
Si       5.61481201       5.56902023       5.19753481
Si       0.76737755       4.91019344       1.61498655
Si       7.86953993       1.63826791       1.61498655
Si       1.29635327       4.25367178       5.19753481
Si       7.34056421       2.29478956       5.19753481
Si       3.55108119       1.63596277       1.61498655
Si       5.08583629       4.91249858       1.61498655
Si      -0.00000000       0.00000000       5.87747248
Si      -0.00000000       6.54846134       3.36170543
Si       4.31845874       3.27423067       5.87747248
Si       4.31845874       3.27423067       3.36170543
20
Lattice="8.635173847036233 -1.5357597445343781e-49 -4.673770561911751e-33 1.0250596100809962e-48 6.550642430201317 1.6107340978879556e-15 3.201280899264392e-33 -1.2188535249644624e-15 5.891209950232411" Properties=species:S:1:pos:R:3 unique_starting_index=96 config_type=initial n_minim_iter=12 stress="-0.00019737170543703496 -5.588731934042638e-16 -3.168866700027666e-16 -5.588731934042638e-16 0.00016431082105040017 2.72365595029168e-16 -3.168866700027666e-16 2.72365595029168e-16 -0.0002654439596793354" pbc="T T T"
Si       7.19472125       3.92213195       2.11128562
Si       1.44045260       2.62851048       2.11128562
Si       5.34819944       1.29824047       4.39586104
Si       3.28697441       5.25240196       4.39586104
Si       5.75803952       0.64681073       2.11128562
Si       2.87713432       5.90383170       2.11128562
Si       7.60456133       4.57356168       4.39586104
Si       1.03061251       1.97708075       4.39586104
Si       3.02182270       0.98087141       5.19742995
Si       5.61335115       5.56977102       5.19742995
Si       0.76752870       4.91104632       1.61489234
Si       7.86764514       1.63959611       1.61489234
Si       1.29576422       4.25619262       5.19742995
Si       7.33940962       2.29444981       5.19742995
Si       3.55005822       1.63572510       1.61489234
Si       5.08511563       4.91491733       1.61489234
Si      -0.00000000       0.00000000       5.87596934
Si      -0.00000000       6.55064243       3.36070917
Si       4.31758692       3.27532122       5.87596934
Si       4.31758692       3.27532122       3.36070917
20
Lattice="8.640089086669585 -1.5262269839496746e-49 -4.680817641907384e-33 1.0243955387497471e-48 6.5448446591711384 1.6097109285994174e-15 3.200241347427849e-33 -1.21960112228495e-15 5.894900156424182" Properties=species:S:1:pos:R:3 unique_starting_index=96 config_type=initial n_minim_iter=13 stress="0.0002101959503933062 -6.145700990801328e-16 -4.2525306334595077e-16 -6.145700990801328e-16 7.830170174460956e-05 1.264228735292991e-16 -4.2525306334595077e-16 1.264228735292991e-16 0.0002839149650798473" pbc="T T T"
Si       7.20008588       3.92051386       2.11252745
Si       1.44000321       2.62433080       2.11252745
Si       5.35140189       1.29616031       4.39837587
Si       3.28868720       5.24868435       4.39837587
Si       5.76004775       0.64809153       2.11252745
Si       2.88004133       5.89675313       2.11252745
Si       7.60873174       4.56858264       4.39837587
Si       1.03135735       1.97626202       4.39837587
Si       3.02415928       0.98307085       5.20104361
Si       5.61592980       5.56177381       5.20104361
Si       0.76778652       4.90659927       1.61594205
Si       7.87230257       1.63824539       1.61594205
Si       1.29588526       4.25549318       5.20104361
Si       7.34420383       2.28935148       5.20104361
Si       3.55225802       1.63417694       1.61594205
Si       5.08783106       4.91066772       1.61594205
Si      -0.00000000       0.00000000       5.87982865
Si      -0.00000000       6.54484466       3.36248200
Si       4.32004454       3.27242233       5.87982865
Si       4.32004454       3.27242233       3.36248200
20
Lattice="8.645168168288032 -1.5308686959843826e-49 -4.6844513432516144e-33 1.0241144199455247e-48 6.544261817058315 1.610003555165206e-15 3.196689089147988e-33 -1.2178987833672859e-15 5.889508227649613" Properties=species:S:1:pos:R:3 unique_starting_index=96 config_type=initial n_minim_iter=14 stress="-0.00016294153210908035 -6.952924404561914e-16 -5.334045799059792e-16 -6.952924404561914e-16 -0.00011050150172089164 3.2435214237644954e-16 -5.334045799059792e-16 3.2435214237644954e-16 -0.0002256335062937868" pbc="T T T"
Si       7.20597773       3.92205917       2.10897515
Si       1.43919044       2.62220265       2.10897515
Si       5.35487826       1.29604017       4.39546759
Si       3.29028990       5.24822165       4.39546759
Si       5.76177452       0.64992826       2.10897515
Si       2.88339364       5.89433355       2.10897515
Si       7.61287399       4.56817108       4.39546759
Si       1.03229418       1.97609074       4.39546759
Si       3.02675451       0.98485780       5.19443563
Si       5.61841366       5.55940402       5.19443563
Si       0.77061750       4.90657918       1.61593705
Si       7.87455067       1.63768263       1.61593705
Si       1.29582957       4.25698871       5.19443563
Si       7.34933860       2.28727311       5.19443563
Si       3.55196659       1.63444827       1.61593705
Si       5.09320158       4.90981354       1.61593705
Si      -0.00000000       0.00000000       5.87591218
Si      -0.00000000       6.54426182       3.35971043
Si       4.32258408       3.27213091       5.87591218
Si       4.32258408       3.27213091       3.35971043
20
Lattice="8.646810111344625 -1.5068987258520365e-49 -4.6897541193273974e-33 1.0236061695951201e-48 6.5404065129365625 1.6072979176950055e-15 3.195198166363777e-33 -1.22034248178772e-15 5.89239878566179" Properties=species:S:1:pos:R:3 unique_starting_index=96 config_type=initial n_minim_iter=15 stress="-4.32813002728734e-05 -6.102722671811416e-16 -5.4825669111497005e-16 -6.102722671811416e-16 -6.26420154735942e-05 2.798112680461496e-16 -5.4825669111497005e-16 2.798112680461496e-16 -1.3330703902056706e-05" pbc="T T T"
Si       7.20580975       3.91985843       2.11049559
Si       1.44100036       2.62054808       2.11049559
Si       5.35608045       1.29348784       4.39736415
Si       3.29072966       5.24691867       4.39736415
Si       5.76440542       0.64965518       2.11049559
Si       2.88240470       5.89075134       2.11049559
Si       7.61413471       4.56369110       4.39736415
Si       1.03267540       1.97671541       4.39736415
Si       3.02758184       0.98717276       5.19796714
Si       5.61922827       5.55323375       5.19796714
Si       0.77030121       4.90376318       1.61642284
Si       7.87650890       1.63664333       1.61642284
Si       1.29582322       4.25737601       5.19796714
Si       7.35098689       2.28303050       5.19796714
Si       3.55310385       1.63355993       1.61642284
Si       5.09370626       4.90684659       1.61642284
Si      -0.00000000       0.00000000       5.87701063
Si      -0.00000000       6.54040651       3.36134596
Si       4.32340506       3.27020326       5.87701063
Si       4.32340506       3.27020326       3.36134596
20
Lattice="8.652229421346087 -1.4689598062032414e-49 -4.694964448244064e-33 1.0226287643387796e-48 6.53980205925973 1.6008016379013505e-15 3.1922790497035834e-33 -1.225525530763563e-15 5.889955166389861" Properties=species:S:1:pos:R:3 unique_starting_index=96 config_type=initial n_minim_iter=16 stress="0.00027892792330350363 -5.724731825016606e-16 -5.344543396378102e-16 -5.724731825016606e-16 0.00025570078526484955 2.512850832518936e-16 -5.344543396378102e-16 2.512850832518936e-16 0.00018031521263687104" pbc="T T T"
Si       7.21198540       3.92105878       2.10847192
Si       1.44024402       2.61874328       2.10847192
Si       5.36070946       1.29145484       4.39650691
Si       3.29151996       5.24834722       4.39650691
Si       5.76635873       0.65115775       2.10847192
Si       2.88587069       5.88864431       2.10847192
Si       7.61763468       4.56135587       4.39650691
Si       1.03459475       1.97844619       4.39650691
Si       3.03012660       0.98984022       5.19443610
Si       5.62210282       5.54996184       5.19443610
Si       0.77186311       4.90354981       1.61687636
Si       7.88036631       1.63625225       1.61687636
Si       1.29598811       4.25974125       5.19443610
Si       7.35624131       2.28006081       5.19443610
Si       3.55425160       1.63364878       1.61687636
Si       5.09797782       4.90615328       1.61687636
Si      -0.00000000       0.00000000       5.87508038
Si      -0.00000000       6.53980206       3.36031219
Si       4.32611471       3.26990103       5.87508038
Si       4.32611471       3.26990103       3.36031219
