16
Lattice="4.679747936282132 -3.2145306135050975e-12 1.861580615234906e-12 6.1641320171769445e-12 8.973809104558557 -8.791138326355651e-14 -6.173548882684386e-12 -4.486904552279203 7.771546653259839" Properties=species:S:1:pos:R:3 unique_starting_index=88 config_type=initial n_minim_iter=1 energy=-2604.649889651984 free_energy=-2604.649889651984 pbc="T T T"
Si       0.88012691       3.16980871       2.92680109
Si       0.88012691       5.43668429       3.56301124
Si       0.88012691       4.85422065       1.28173432
Si       0.01489011       8.52073615       1.14751917
Si       0.01489011       1.22031723      -0.18138690
Si       0.01489011       3.71966027       6.80541439
Si       0.96956172       1.35057648       1.73373744
Si       0.96956172       5.31307697       5.73504439
Si       0.96956172       6.79706020       0.30276483
Si       3.14401533       4.23779525       1.12845209
Si       3.14401533       3.34527510       3.53728226
Si       3.14401533       5.87764330       3.10581230
Si       5.26155633      -0.16180594       3.20784228
Si       5.26155633      -1.62792868       6.30775357
Si       5.26155633       1.78973462       6.02749746
Si       1.50950997      -0.00000000       5.18103110
16
Lattice="4.679858033528242 -3.214606239580027e-12 1.861624411375625e-12 6.163618764926806e-12 8.973061906461178 -8.651494565101963e-14 -6.173034846345361e-12 -4.486530953230516 7.77089956072585" Properties=species:S:1:pos:R:3 unique_starting_index=88 config_type=initial n_minim_iter=2 stress="-0.0002886755238307797 -2.3885477693521104e-16 -2.2038115023436516e-16 -2.3885477693521104e-16 -0.00025785539853547017 -3.3680099631402995e-16 -2.2038115023436516e-16 -3.3680099631402995e-16 -0.0002578553985345121" pbc="T T T"
Si       0.88014188       3.16955740       2.92655995
Si       0.88014188       5.43622751       3.56270236
Si       0.88014188       4.85380794       1.28163726
Si       0.01490191       8.52003180       1.14743619
Si       0.01490191       1.22022395      -0.18138251
Si       0.01490191       3.71933711       6.80484588
Si       0.96956587       1.35046802       1.73357737
Si       0.96956587       5.31261898       5.73457126
Si       0.96956587       6.79650585       0.30275093
Si       3.14407693       4.23745036       1.12834528
Si       3.14407693       3.34498145       3.53698726
Si       3.14407693       5.87716104       3.10556702
Si       5.26170674      -0.16178536       3.20755014
Si       5.26170674      -1.62781837       6.30723472
Si       5.26170674       1.78960372       6.02701426
Si       1.50954155      -0.00000000       5.18059971
16
Lattice="4.683851332544605 -3.217349246705999e-12 1.8632129260009663e-12 6.163068578971201e-12 8.97226093988165 -6.986180807138185e-14 -6.172483819877735e-12 -4.486130469940767 7.770205903320388" Properties=species:S:1:pos:R:3 unique_starting_index=88 config_type=initial n_minim_iter=3 stress="0.0006584038987387942 -2.4949566687905784e-15 1.827892428408997e-16 -2.4949566687905784e-15 -7.816830588244161e-05 -7.224896653839836e-17 1.827892428408997e-16 -7.224896653839836e-17 -7.816830588039621e-05" pbc="T T T"
Si       0.88077557       3.16953701       2.92635985
Si       0.88077557       5.43566393       3.56212640
Si       0.88077557       4.85319046       1.28171965
Si       0.01503442       8.51923950       1.14766063
Si       0.01503442       1.22041398      -0.18150224
Si       0.01503442       3.71873792       6.80404752
Si       0.97012396       1.35058363       1.73316137
Si       0.97012396       5.31180043       5.73398548
Si       0.97012396       6.79600735       0.30305905
Si       3.14651504       4.23722873       1.12797552
Si       3.14651504       3.34437156       3.53667042
Si       3.14651504       5.87679111       3.10555997
Si       5.26673077      -0.16165972       3.20684096
Si       5.26673077      -1.62809488       6.30678684
Si       5.26673077       1.78975459       6.02678400
Si       1.51076136      -0.00000000       5.18013727
16
Lattice="4.6819650558376 -3.2160535584974114e-12 1.8624625744434593e-12 6.1636893550928525e-12 8.973164672377486 -1.7452185827768612e-14 -6.173105544351154e-12 -4.4865823361887305 7.77098855861998" Properties=species:S:1:pos:R:3 unique_starting_index=88 config_type=initial n_minim_iter=4 stress="-0.0004927693506374199 3.357086225155009e-16 9.83278643252884e-16 3.357086225155009e-16 1.316373690897624e-05 -8.508178857200359e-16 9.83278643252884e-16 -8.508178857200359e-16 1.3163736909498579e-05" pbc="T T T"
Si       0.87994729       3.17094509       2.92697926
Si       0.87994729       5.43594818       3.56137992
Si       0.87994729       4.85285372       1.28262938
Si       0.01530642       8.52010318       1.14842607
Si       0.01530642       1.22109689      -0.18185027
Si       0.01530642       3.71854693       6.80441276
Si       0.96862817       1.35191453       1.73209474
Si       0.96862817       5.31066311       5.73414886
Si       0.96862817       6.79716936       0.30474496
Si       3.14417535       4.23837345       1.12693840
Si       3.14417535       3.34335289       3.53698028
Si       3.14417535       5.87802066       3.10706988
Si       5.26707466      -0.16136302       3.20575881
Si       5.26707466      -1.62963226       6.30785363
Si       5.26707466       1.79099528       6.02836468
Si       1.50987772      -0.00000000       5.18065904
16
Lattice="4.686378830541286 -3.2190853914292904e-12 1.8642183522204405e-12 6.163710647164802e-12 8.973195669602882 8.913614371887263e-14 -6.173126868950814e-12 -4.486597834801522 7.771015403004566" Properties=species:S:1:pos:R:3 unique_starting_index=88 config_type=initial n_minim_iter=5 stress="0.00022523658673662396 -5.871337159744359e-16 4.746755496977546e-16 -5.871337159744359e-16 -9.567322592143346e-05 -1.05323949159235e-15 4.746755496977546e-16 -1.05323949159235e-15 -9.567322592108557e-05" pbc="T T T"
Si       0.87959031       3.17303854       2.92750476
Si       0.87959031       5.43537205       3.55933104
Si       0.87959031       4.85138291       1.28417961
Si       0.01520074       8.52138014       1.14753537
Si       0.01520074       1.21970255      -0.18248396
Si       0.01520074       3.71871081       6.80596399
Si       0.96758423       1.35537305       1.73008556
Si       0.96758423       5.30720935       5.73218513
Si       0.96758423       6.79721109       0.30874472
Si       3.14483693       4.24009366       1.12453838
Si       3.14483693       3.34042980       3.53671738
Si       3.14483693       5.87927003       3.10975964
Si       5.27782374      -0.16080397       3.20333239
Si       5.27782374      -1.63202863       6.30860953
Si       5.27782374       1.79283259       6.03008889
Si       1.51064862      -0.00000000       5.18067694
16
Lattice="4.686926451933508 -3.2194615539392968e-12 1.864436193305501e-12 6.164362924953062e-12 8.974145262560814 1.6866866173246965e-13 -6.173780143215558e-12 -4.487072631280558 7.7718377746293505" Properties=species:S:1:pos:R:3 unique_starting_index=88 config_type=initial n_minim_iter=6 stress="3.0613613766031176e-05 -1.3987296725631162e-15 3.318104647490749e-16 -1.3987296725631162e-15 0.0001015125495984745 -1.2145147106762743e-15 3.318104647490749e-16 -1.2145147106762743e-15 0.0001015125495999091" pbc="T T T"
Si       0.87844541       3.17446808       2.92790534
Si       0.87844541       5.43547899       3.55871510
Si       0.87844541       4.85127082       1.28521734
Si       0.01448276       8.52521209       1.14863325
Si       0.01448276       1.21921216      -0.18552909
Si       0.01448276       3.71679364       6.80873362
Si       0.96636312       1.35795892       1.72995796
Si       0.96636312       5.30628071       5.73083187
Si       0.96636312       6.79697826       0.31104794
Si       3.14359154       4.24218522       1.12317905
Si       3.14359154       3.33868160       3.53640808
Si       3.14359154       5.88035106       3.11225065
Si       5.28348868      -0.16047820       3.20186797
Si       5.28348868      -1.63393453       6.30988198
Si       5.28348868       1.79441272       6.03192560
Si       1.51042399      -0.00000000       5.18122518
16
Lattice="4.689820296216457 -3.221449342846928e-12 1.8655873502682254e-12 6.16108131520338e-12 8.969367860103036 2.7152678653404784e-13 -6.170493520192787e-12 -4.484683930051757 7.767700422736756" Properties=species:S:1:pos:R:3 unique_starting_index=88 config_type=initial n_minim_iter=7 stress="-0.0003603095321472202 -2.463002148626085e-15 -1.078348977038488e-15 -2.463002148626085e-15 -0.00014676420702203812 -2.1614350415494045e-16 -1.078348977038488e-15 -2.1614350415494045e-16 -0.00014676420702077684" pbc="T T T"
Si       0.87641908       3.17311634       2.92570889
Si       0.87641908       5.43186398       3.55684662
Si       0.87641908       4.84907147       1.28514492
Si       0.01264895       8.52249222       1.15008651
Si       0.01264895       1.21944195      -0.18803760
Si       0.01264895       3.71211762       6.80565152
Si       0.96511351       1.36144738       1.72714678
Si       0.96511351       5.29971322       5.72507901
Si       0.96511351       6.79289118       0.31547463
Si       3.14434903       4.24276285       1.12224412
Si       3.14434903       3.33519442       3.53223795
Si       3.14434903       5.87609451       3.11321835
Si       5.29415859      -0.16072587       3.19953351
Si       5.29415859      -1.63344370       6.30712636
Si       5.29415859       1.79416957       6.02874098
Si       1.51145693      -0.00000000       5.17846695
16
Lattice="4.695022385263173 -3.225022670881371e-12 1.867656715597288e-12 6.1610451899843626e-12 8.969315268624118 3.6165902554111767e-13 -6.1704573397858046e-12 -4.484657634312377 7.767654877179949" Properties=species:S:1:pos:R:3 unique_starting_index=88 config_type=initial n_minim_iter=8 stress="-0.00014967685656776543 -3.887075843531269e-15 -1.2413884064317363e-15 -3.887075843531269e-15 3.4956327348680594e-05 1.9728148009908123e-16 -1.2413884064317363e-15 1.9728148009908123e-16 3.4956327352590586e-05" pbc="T T T"
Si       0.87484404       3.17399047       2.92539150
Si       0.87484404       5.43112575       3.55620275
Si       0.87484404       4.84885668       1.28606063
Si       0.01110227       8.52446202       1.15097297
Si       0.01110227       1.21919845      -0.19023227
Si       0.01110227       3.71031243       6.80691418
Si       0.96405216       1.36316629       1.72430828
Si       0.96405216       5.29636926       5.72496410
Si       0.96405216       6.79443735       0.31838250
Si       3.14711264       4.24546793       1.12222230
Si       3.14711264       3.33379669       3.52986065
Si       3.14711264       5.87470828       3.11557193
Si       5.30666054      -0.16093766       3.19899529
Si       5.30666054      -1.63377762       6.30753333
Si       5.30666054       1.79471527       6.02878113
Si       1.51413691      -0.00000000       5.17843659
16
Lattice="4.713606262105456 -3.237787982569204e-12 1.875049290017225e-12 6.157812119400717e-12 8.964608530001868 7.287912585364817e-13 -6.1672193300819405e-12 -4.48230426500157 7.763578721963925" Properties=species:S:1:pos:R:3 unique_starting_index=88 config_type=initial n_minim_iter=9 stress="0.00043266735140602 -4.018946590287712e-15 -1.6626561868231435e-15 -4.018946590287712e-15 0.0007327469379985537 1.8270770156785125e-16 -1.6626561868231435e-15 1.8270770156785125e-16 0.000732746938004445" pbc="T T T"
Si       0.86771060       3.17626876       2.92290515
Si       0.86771060       5.42547999       3.55139671
Si       0.86771060       4.84516403       1.28927686
Si       0.00141826       8.52514160       1.15275363
Si       0.00141826       1.21804740      -0.19578729
Si       0.00141826       3.70372380       6.80661238
Si       0.96074111       1.36917572       1.71334721
Si       0.96074111       5.28151861       5.72116416
Si       0.96074111       6.79621846       0.32906735
Si       3.15707372       4.25534160       1.12215711
Si       3.15707372       3.32645002       3.51726624
Si       3.15707372       5.86512117       3.12415537
Si       5.35494660      -0.16090089       3.19165890
Si       5.35494660      -1.63779613       6.30709353
Si       5.35494660       1.79869702       6.02840502
Si       1.52812766      -0.00000000       5.17571915
16
Lattice="4.722555401592621 -3.2439351689642214e-12 1.8786092135043816e-12 6.151200639251664e-12 8.954983466717945 8.350409197169681e-13 -6.160597749659456e-12 -4.477491733359699 7.755243172646963" Properties=species:S:1:pos:R:3 unique_starting_index=88 config_type=initial n_minim_iter=10 stress="0.00018023597123829178 -3.6113370534459856e-15 -1.1631162170297684e-15 -3.6113370534459856e-15 -0.00047090426611715876 8.4433140037637175e-16 -1.1631162170297684e-15 8.4433140037637175e-16 -0.00047090426611156927" pbc="T T T"
Si       0.86424105       3.17122065       2.91874436
Si       0.86424105       5.41958817       3.54951335
Si       0.86424105       4.84166638       1.28698547
Si      -0.01164499       8.51559108       1.15318642
Si      -0.01164499       1.21838493      -0.19606824
Si      -0.01164499       3.69849918       6.79812499
Si       0.96249104       1.36499954       1.70761683
Si       0.96249104       5.27383151       5.71931048
Si       0.96249104       6.79364414       0.32831587
Si       3.16482778       4.25956326       1.12445757
Si       3.16482778       3.32151892       3.50412440
Si       3.16482778       5.85139302       3.12666121
Si       5.37594076      -0.16253426       3.18225886
Si       5.37594076      -1.64030759       6.30487253
Si       5.37594076       1.80284184       6.02335495
Si       1.54803748      -0.00000000       5.17016212
16
Lattice="4.752768314925759 -3.264688495031117e-12 1.8906277612032182e-12 6.140591843105618e-12 8.939539068191745 1.5121850733094674e-12 -6.149972746591997e-12 -4.469769534097188 7.741867931176766" Properties=species:S:1:pos:R:3 unique_starting_index=88 config_type=initial n_minim_iter=11 stress="0.0008381900447611996 -2.0346758487596004e-15 -1.847002581864806e-16 -2.0346758487596004e-15 0.002016225515714998 -2.05656664762557e-16 -1.847002581864806e-16 -2.05656664762557e-16 0.0020162255157215214" pbc="T T T"
Si       0.85756192       3.16623418       2.91195257
Si       0.85756192       5.40847734       3.54385241
Si       0.85756192       4.83459707       1.28606295
Si      -0.03584482       8.51247248       1.15781175
Si      -0.03584482       1.21622768      -0.20905536
Si      -0.03584482       3.68060844       6.79311154
Si       0.95719706       1.37619446       1.68338766
Si       0.95719706       5.23952878       5.70835474
Si       0.95719706       6.79358536       0.35012554
Si       3.17501197       4.27690544       1.11401927
Si       3.17501197       3.29608580       3.48094953
Si       3.17501197       5.83631735       3.14689913
Si       5.45853736      -0.17070680       3.16344754
Si       5.45853736      -1.64479020       6.30798058
Si       5.45853736       1.81549700       6.01230774
Si       1.58687479      -0.00000000       5.16124529
16
Lattice="4.754787490296238 -3.266075471665504e-12 1.8914309791926537e-12 6.1375214221986025e-12 8.935069116702492 1.5303498108404492e-12 -6.1468976350423146e-12 -4.467534558352579 7.737996839633379" Properties=species:S:1:pos:R:3 unique_starting_index=88 config_type=initial n_minim_iter=12 stress="-0.0011351206474750418 -3.5408851008417914e-15 -4.745650231474067e-16 -3.5408851008417914e-15 -0.00045283485224288336 7.408662104609724e-18 -4.745650231474067e-16 7.408662104609724e-18 -0.0004528348522362695" pbc="T T T"
Si       0.86168156       3.16046900       2.91029374
Si       0.86168156       5.40768836       3.54580353
Si       0.86168156       4.83444631       1.28189958
Si      -0.04358115       8.50879686       1.15803598
Si      -0.04358115       1.21602470      -0.20985539
Si      -0.04358115       3.67778211       6.78981625
Si       0.95851166       1.37287508       1.67782131
Si       0.95851166       5.23413289       5.71014148
Si       0.95851166       6.79559569       0.35003405
Si       3.17418892       4.27864165       1.10932086
Si       3.17418892       3.28891378       3.47792405
Si       3.17418892       5.83504824       3.15075193
Si       5.46098369      -0.17730409       3.15791521
Si       5.46098369      -1.64404773       6.31258908
Si       5.46098369       1.82135181       6.00548939
Si       1.60285634      -0.00000000       5.15866456
16
Lattice="4.780069804600457 -3.283441956873195e-12 1.9014881589505877e-12 6.129152399982562e-12 8.922885404940915 1.7998780867437557e-12 -6.138515827578473e-12 -4.461442702472022 7.727445435735333" Properties=species:S:1:pos:R:3 unique_starting_index=88 config_type=initial n_minim_iter=13 stress="-2.9209725304017456e-05 -6.428815659893364e-15 9.17460015864107e-16 -6.428815659893364e-15 -0.0010913225353101962 2.423309779556806e-16 9.17460015864107e-16 2.423309779556806e-16 -0.0010913225353021765" pbc="T T T"
Si       0.86488536       3.15161772       2.90491301
Si       0.86488536       5.40136230       3.54560792
Si       0.86488536       4.83134808       1.27692451
Si      -0.06794967       8.50140195       1.15988305
Si      -0.06794967       1.21522991      -0.21492615
Si      -0.06794967       3.66769623       6.78248854
Si       0.96064758       1.36874681       1.66003630
Si       0.96064758       5.21470291       5.71205778
Si       0.96064758       6.80087839       0.35535136
Si       3.18723751       4.28910141       1.10440092
Si       3.18723751       3.27333125       3.46077419
Si       3.18723751       5.82189544       3.16227033
Si       5.50979240      -0.18986161       3.14206406
Si       5.50979240      -1.64540460       6.32083838
Si       5.50979240       1.83526621       5.99198843
Si       1.64897926      -0.00000000       5.15163029
16
Lattice="4.778617807171366 -3.282444576191567e-12 1.900910561544879e-12 6.1337667393780604e-12 8.929603009424785 1.491125092932253e-12 -6.143137216240902e-12 -4.464801504713688 7.733263051871092" Properties=species:S:1:pos:R:3 unique_starting_index=88 config_type=initial n_minim_iter=14 stress="-9.657879070443563e-06 -7.926431780444355e-15 6.760454592033665e-16 -7.926431780444355e-15 -0.0026822531597551287 6.887222291338425e-16 6.760454592033665e-16 6.887222291338425e-16 -0.002682253159746774" pbc="T T T"
Si       0.87613325       3.14905133       2.90705565
Si       0.87613325       5.40785988       3.55257678
Si       0.87613325       4.83749330       1.27363062
Si      -0.06961800       8.50395092       1.15823508
Si      -0.06961800       1.21588704      -0.21049202
Si      -0.06961800       3.67456654       6.78551999
Si       0.96566908       1.35826107       1.66229077
Si       0.96566908       5.22525701       5.72582908
Si       0.96566908       6.81088644       0.34514320
Si       3.18965445       4.28595797       1.10740615
Si       3.18965445       3.28086437       3.46781150
Si       3.18965445       5.82758217       3.15804541
Si       5.48520332      -0.19762303       3.14480411
Si       5.48520332      -1.64250975       6.33200756
Si       5.48520332       1.84013277       5.98971444
Si       1.66166447      -0.00000000       5.15550870
16
Lattice="4.812047631061772 -3.305407606201504e-12 1.914208780374703e-12 6.141339437110468e-12 8.940627423514108 1.9093687074931158e-12 -6.150721482686944e-12 -4.470313711758711 7.742810474534076" Properties=species:S:1:pos:R:3 unique_starting_index=88 config_type=initial n_minim_iter=15 stress="0.001463086943211542 -4.307605667272201e-15 -1.6694651281782904e-16 -4.307605667272201e-15 0.0014578723031593102 1.0579248400963063e-15 -1.6694651281782904e-16 1.0579248400963063e-15 0.0014578723031654533" pbc="T T T"
Si       0.89243809       3.14487525       2.90542777
Si       0.89243809       5.41405034       3.56655473
Si       0.89243809       4.85201554       1.27082797
Si      -0.12275298       8.52761733       1.16204471
Si      -0.12275298       1.21286528      -0.22334512
Si      -0.12275298       3.67045852       6.80411089
Si       0.95841002       1.35665726       1.62520443
Si       0.95841002       5.19945340       5.75530861
Si       0.95841002       6.85483047       0.36229744
Si       3.20648281       4.31735627       1.10886058
Si       3.20648281       3.27193700       3.44943998
Si       3.20648281       5.82164785       3.18450992
Si       5.55048580      -0.23827398       3.11499231
Si       5.55048580      -1.65351425       6.39166564
Si       5.55048580       1.89178822       5.97896300
Si       1.77847752      -0.00000000       5.16187365
16
Lattice="4.822625431660085 -3.312673524005154e-12 1.918416577207727e-12 6.14668353545119e-12 8.948407418850463 2.105612293424631e-12 -6.1560737451383855e-12 -4.4742037094270595 7.749548148136586" Properties=species:S:1:pos:R:3 unique_starting_index=88 config_type=initial n_minim_iter=16 stress="0.0014501191997192927 -3.861008943543769e-15 -1.3611356743928024e-15 -3.861008943543769e-15 0.0037103324417513436 9.21436386804907e-16 -1.3611356743928024e-15 9.21436386804907e-16 0.003710332441760097" pbc="T T T"
Si       0.89814027       3.14659714       2.90558104
Si       0.89814027       5.41721213       3.57172457
Si       0.89814027       4.85880185       1.27224254
Si      -0.14163924       8.54228842       1.16439148
Si      -0.14163924       1.21145210      -0.23048637
Si      -0.14163924       3.66887061       6.81564304
Si       0.95210914       1.36057955       1.61013399
Si       0.95210914       5.18833087       5.76618470
Si       0.95210914       6.87370071       0.37322946
Si       3.21174838       4.33006312       1.11138177
Si       3.21174838       3.27165699       3.44391260
Si       3.21174838       5.82089101       3.19425378
Si       5.57401295      -0.25526917       3.10355343
Si       5.57401295      -1.65881302       6.41884102
Si       5.57401295       1.91408218       5.97670185
Si       1.82360820      -0.00000000       5.16636543
16
Lattice="4.842340508187729 -3.3262158595985646e-12 1.926259137275373e-12 6.166436279374046e-12 8.977163674031942 3.0245424097832753e-12 -6.175856665075793e-12 -4.488581837018597 7.774451795640995" Properties=species:S:1:pos:R:3 unique_starting_index=88 config_type=initial n_minim_iter=17 stress="0.0011851030999044149 1.6069569646260485e-15 -4.176192749411952e-15 1.6069569646260485e-15 0.012445449963633113 5.526531602595706e-16 -4.176192749411952e-15 5.526531602595706e-16 0.012445449963643248" pbc="T T T"
Si       0.90059600       3.17084765       2.90872238
Si       0.90059600       5.42218549       3.57405599
Si       0.90059600       4.87271237       1.29167342
Si      -0.17463357       8.60085303       1.17541613
Si      -0.17463357       1.20609555      -0.26181349
Si      -0.17463357       3.65879693       6.86084915
Si       0.91789761       1.40099142       1.56878505
Si       0.91789761       5.14669383       5.77676511
Si       0.91789761       6.91806026       0.42890164
Si       3.21791345       4.36483642       1.12298528
Si       3.21791345       3.27869740       3.43289994
Si       3.21791345       5.82221168       3.21856658
Si       5.64832611      -0.29434673       3.07519689
Si       5.64832611      -1.67820985       6.49176509
Si       5.64832611       1.97255657       5.98194161
Si       1.91258307      -0.00000000       5.18296786
16
Lattice="4.81883779635283 -3.310071787797617e-12 1.916909874590071e-12 6.16700749058946e-12 8.977995249408636 2.6514041211392013e-12 -6.176428748922963e-12 -4.488997624706619 7.7751719610425605" Properties=species:S:1:pos:R:3 unique_starting_index=88 config_type=initial n_minim_iter=18 stress="-0.008111969700955995 -4.5977545103539755e-15 -2.1022317781374658e-15 -4.5977545103539755e-15 -0.005810793669043515 5.233340978066281e-16 -2.1022317781374658e-15 5.233340978066281e-16 -0.005810793669032278" pbc="T T T"
Si       0.90216715       3.17596350       2.91142403
Si       0.90216715       5.42238304       3.56899487
Si       0.90216715       4.86864632       1.29475307
Si      -0.14689818       8.59789012       1.17330878
Si      -0.14689818       1.20616777      -0.25747370
Si      -0.14689818       3.66293497       6.85933688
Si       0.91948325       1.40659621       1.58602486
Si       0.91948325       5.15923734       5.76401147
Si       0.91948325       6.90115932       0.42513563
Si       3.20748984       4.34402123       1.12695308
Si       3.20748984       3.29295701       3.44966268
Si       3.20748984       5.83001464       3.19855620
Si       5.58991542      -0.28644387       3.08811806
Si       5.58991542      -1.67138700       6.47918060
Si       5.58991542       1.95783087       5.98304526
Si       1.86409154      -0.00000000       5.18344797
16
Lattice="4.830184643499004 -3.3178659656069263e-12 1.9214235943414236e-12 6.153738159780312e-12 8.958677616156299 2.5779685765917e-12 -6.163139146727089e-12 -4.479338808080388 7.758442399905086" Properties=species:S:1:pos:R:3 unique_starting_index=88 config_type=initial n_minim_iter=19 stress="0.0008133724579818979 -6.6045886871118506e-15 -1.155754054954263e-15 -6.6045886871118506e-15 -0.0002828003608216568 4.81533722213539e-16 -1.155754054954263e-15 4.81533722213539e-16 -0.0002828003608106512" pbc="T T T"
Si       0.89627927       3.16968616       2.90696617
Si       0.89627927       5.41200228       3.55993057
Si       0.89627927       4.85632798       1.29154565
Si      -0.14103457       8.57881461       1.17286602
Si      -0.14103457       1.20566327      -0.25746200
Si      -0.14103457       3.65353854       6.84303838
Si       0.92600089       1.40609977       1.59022194
Si       0.92600089       5.15346151       5.74561331
Si       0.92600089       6.87845513       0.42260716
Si       3.21995782       4.33017492       1.12655474
Si       3.21995782       3.28987637       3.44512355
Si       3.21995782       5.81796513       3.18676412
Si       5.60446196      -0.27614730       3.09632194
Si       5.60446196      -1.65977170       6.44943201
Si       5.60446196       1.93591900       5.97113085
Si       1.84193314      -0.00000000       5.17229493
16
Lattice="4.853398337333986 -3.3338115102176814e-12 1.9306578870938513e-12 6.145408007376169e-12 8.946550491481197 2.7344222396913118e-12 -6.1547962684559705e-12 -4.473275245742971 7.747940001861508" Properties=species:S:1:pos:R:3 unique_starting_index=88 config_type=initial n_minim_iter=20 stress="0.006082180321245793 -7.462232013735874e-15 2.829943728728853e-16 -7.462232013735874e-15 0.0043138242085754555 4.212738571063801e-16 2.829943728728853e-16 4.212738571063801e-16 0.004313824208585551" pbc="T T T"
Si       0.90536071       3.16350063       2.90395473
Si       0.90536071       5.40642350       3.55629072
Si       0.90536071       4.84990160       1.28769455
Si      -0.16189368       8.57905787       1.17743383
Si      -0.16189368       1.20343392      -0.27045897
Si      -0.16189368       3.63733394       6.84096514
Si       0.92478559       1.41284714       1.56772377
Si       0.92478559       5.12454029       5.74051660
Si       0.92478559       6.88243830       0.43969963
Si       3.23621160       4.32954639       1.12349801
Si       3.23621160       3.28147986       3.43669384
Si       3.23621160       5.80879948       3.18774816
Si       5.63934134      -0.29870694       3.08642536
Si       5.63934134      -1.65099901       6.46341512
Si       5.63934134       1.94970595       5.94603952
Si       1.88783436      -0.00000000       5.16529334
16
Lattice="4.833975556806705 -3.3204699534812e-12 1.9229316009314662e-12 6.134199231227018e-12 8.930232635669796 2.5895283180346126e-12 -6.143570368802989e-12 -4.465116317837145 7.7338083241936175" Properties=species:S:1:pos:R:3 unique_starting_index=88 config_type=initial n_minim_iter=21 stress="-0.004006230921367814 -6.715513101521616e-15 -4.770564501039062e-17 -6.715513101521616e-15 -0.0023149552883113054 -4.4230479953608987e-16 -4.770564501039062e-17 -4.4230479953608987e-16 -0.0023149552882984507" pbc="T T T"
Si       0.90330423       3.15789142       2.90755767
Si       0.90330423       5.40418941       3.54521529
Si       0.90330423       4.83326811       1.28103536
Si      -0.16060015       8.56687303       1.17851891
Si      -0.16060015       1.20230712      -0.27458080
Si      -0.16060015       3.62616880       6.82987022
Si       0.92650314       1.41560975       1.56077641
Si       0.92650314       5.10898346       5.72746611
Si       0.92650314       6.87075573       0.44556580
Si       3.22927445       4.31180533       1.11427423
Si       3.22927445       3.27420344       3.44253826
Si       3.22927445       5.80934018       3.17699584
Si       5.60753674      -0.30291543       3.09496077
Si       5.60753674      -1.63334396       6.44866040
Si       5.60753674       1.93625938       5.92399549
Si       1.86705537      -0.00000000       5.15587222
