24
Lattice="6.874854756578631 -1.8271756675816744 0.2499729927052453 0.6862874137670454 8.150339858139741 0.27428406437845393 2.0644920506503417 2.9568583428845767 9.646154412959907" Properties=species:S:1:pos:R:3 unique_starting_index=94 config_type=initial n_minim_iter=1 energy=-3922.0301977309796 free_energy=-3922.0301977309796 pbc="T T T"
Si       8.43495007       5.84818150       7.94076984
Si      -0.30982252       3.04299752       3.70085924
Si       2.77508693       6.93490326       1.46679936
Si       6.35047088       9.56488750       7.82328043
Si       5.32821692       1.54073773       1.82779499
Si       5.91441069       4.56317777       9.94384216
Si       4.52006037       0.73793744       3.61655301
Si       3.68574790       0.07171880       1.76397188
Si       6.75499436       0.43365209       5.93267145
Si       7.15171513       6.48291885       6.37667887
Si       4.70546307       6.29157062       9.61705326
Si       5.43770714       2.07234430       5.52684348
Si       1.24623196       6.23541718       2.75965414
Si       3.02774534       6.08150046       7.96069433
Si       6.97315381       3.29186875       4.51224252
Si       6.31144265       5.46922245       8.05987977
Si       5.17982914       2.67673316       9.20742909
Si       1.96359997       4.95475453       1.19630109
Si       6.99585989       2.70204556       2.46666956
Si       4.40700334       4.54017494       8.45785240
Si       6.02319681       4.67859730       3.19318222
Si       1.91997458       0.90593251       0.82896435
Si       4.78246142       8.99773574       9.18060880
Si       5.15583544       2.77025840       3.54378828
24
Lattice="6.874981563681917 -1.8271404352535712 0.24998760730176686 0.6863467526390877 8.15032024942974 0.2740216977689207 2.0644853608938614 2.9565561904199735 9.646157810877535" Properties=species:S:1:pos:R:3 unique_starting_index=94 config_type=initial n_minim_iter=2 stress="0.00018001488054828166 4.67504807087441e-05 -7.302801213203384e-05 4.67504807087441e-05 0.00010188821345888528 -0.00017102006497499096 -7.302801213203384e-05 -0.00017102006497499096 0.00027317025804464716" pbc="T T T"
Si       8.43511002       5.84795941       7.94060968
Si      -0.30975181       3.04283959       3.70085676
Si       2.77518725       6.93486083       1.46656113
Si       6.35058409       9.56463128       7.82300918
Si       5.32838443       1.54073004       1.82770054
Si       5.91442507       4.56286394       9.94374801
Si       4.52008703       0.73784564       3.61656161
Si       3.68580525       0.07167771       1.76394835
Si       6.75507147       0.43354272       5.93263794
Si       7.15185907       6.48277905       6.37653482
Si       4.70552492       6.29127846       9.61694184
Si       5.43778752       2.07220678       5.52677726
Si       1.24622245       6.23531928       2.75950621
Si       3.02777814       6.08125563       7.96057744
Si       6.97324974       3.29177387       4.51214091
Si       6.31156311       5.46898393       8.05976418
Si       5.17987039       2.67651491       9.20742369
Si       1.96364132       4.95471838       1.19612773
Si       6.99595733       2.70199329       2.46658846
Si       4.40710511       4.53989115       8.45776928
Si       6.02332937       4.67846757       3.19300586
Si       1.92009355       0.90593948       0.82890859
Si       4.78251328       8.99743564       9.18039587
Si       5.15598121       2.77018043       3.54375383
24
Lattice="6.874922929089776 -1.827136155136835 0.25000414026653284 0.686323571220765 8.150237720083538 0.2740527100111081 2.064500909950698 2.9565618853564715 9.64597616214449" Properties=species:S:1:pos:R:3 unique_starting_index=94 config_type=initial n_minim_iter=3 stress="-3.240461865608585e-05 -1.8415300463652853e-06 -3.074307559032614e-05 -1.8415300463652853e-06 -0.00013765312317009712 -8.516113919012346e-05 -3.074307559032614e-05 -8.516113919012346e-05 -7.292517021804224e-05" pbc="T T T"
Si       8.43505627       5.84791214       7.94049937
Si      -0.30970703       3.04281132       3.70080980
Si       2.77515750       6.93479139       1.46656515
Si       6.35052919       9.56454262       7.82290580
Si       5.32836003       1.54071668       1.82768104
Si       5.91438028       4.56283801       9.94357565
Si       4.52004626       0.73784730       3.61651186
Si       3.68577684       0.07167521       1.76391914
Si       6.75502383       0.43356565       5.93252640
Si       7.15180782       6.48273940       6.37647580
Si       4.70550703       6.29124479       9.61679035
Si       5.43775445       2.07220165       5.52668223
Si       1.24618814       6.23526313       2.75949032
Si       3.02776784       6.08122074       7.96045137
Si       6.97318298       3.29175090       4.51208970
Si       6.31153392       5.46894482       8.05964926
Si       5.17984768       2.67653367       9.20726689
Si       1.96360741       4.95467048       1.19612557
Si       6.99588132       2.70195739       2.46658799
Si       4.40710766       4.53985867       8.45762475
Si       6.02327881       4.67839758       3.19297398
Si       1.92011043       0.90593925       0.82889368
Si       4.78247345       8.99736490       9.18026167
Si       5.15596302       2.77015809       3.54373322
24
Lattice="6.87493892071252 -1.8271674655122865 0.25002320368882514 0.6863232593224191 8.150383704587847 0.2741723110566752 2.0645653558654993 2.956748016780507 9.646061617189213" Properties=species:S:1:pos:R:3 unique_starting_index=94 config_type=initial n_minim_iter=4 stress="2.2390555749635328e-05 -2.4114930043812137e-06 7.502517623691019e-06 -2.4114930043812137e-06 5.733496805473291e-05 5.9836270242939234e-05 7.502517623691019e-06 5.9836270242939234e-05 3.144906583509238e-05" pbc="T T T"
Si       8.43512412       5.84811993       7.94065803
Si      -0.30966610       3.04290610       3.70087169
Si       2.77517153       6.93493205       1.46668223
Si       6.35058051       9.56480876       7.82310166
Si       5.32838724       1.54076637       1.82773577
Si       5.91444861       4.56305186       9.94370764
Si       4.52007765       0.73791738       3.61656079
Si       3.68579562       0.07169956       1.76394309
Si       6.75506855       0.43366516       5.93258466
Si       7.15186117       6.48295108       6.37664613
Si       4.70557420       6.29148908       9.61694248
Si       5.43779779       2.07231645       5.52676006
Si       1.24619377       6.23540924       2.75960131
Si       3.02782192       6.08143539       7.96058448
Si       6.97321499       3.29187459       4.51219863
Si       6.31160117       5.46914817       8.05979592
Si       5.17990861       2.67671603       9.20736837
Si       1.96360646       4.95477487       1.19620938
Si       6.99590435       2.70203501       2.46668386
Si       4.40717812       4.54004772       8.45773597
Si       6.02330898       4.67850828       3.19307961
Si       1.92013816       0.90597161       0.82891632
Si       4.78252735       8.99764396       9.18044674
Si       5.15600578       2.77025233       3.54382930
24
Lattice="6.874877748989916 -1.827168598660271 0.25027253244786674 0.6864020612974027 8.150619240570052 0.2737954041954325 2.06480453628625 2.9563902512552604 9.645971181421134" Properties=species:S:1:pos:R:3 unique_starting_index=94 config_type=initial n_minim_iter=5 stress="-9.992284844236691e-05 -2.376926461950621e-06 8.306480858248684e-05 -2.376926461950621e-06 0.00017346221380622968 -9.033739006668751e-05 8.306480858248684e-05 -9.033739006668751e-05 -5.2039712327132746e-05" pbc="T T T"
Si       8.43534412       5.84795965       7.94054728
Si      -0.30940088       3.04269784       3.70076728
Si       2.77525817       6.93508802       1.46639351
Si       6.35070377       9.56469179       7.82276972
Si       5.32836292       1.54076360       1.82775710
Si       5.91476385       4.56277390       9.94366265
Si       4.52024235       0.73797293       3.61655578
Si       3.68583277       0.07165645       1.76397069
Si       6.75509116       0.43356457       5.93265515
Si       7.15203375       6.48306996       6.37666288
Si       4.70580846       6.29122910       9.61676325
Si       5.43788751       2.07218911       5.52680096
Si       1.24621476       6.23545746       2.75938608
Si       3.02807276       6.08120165       7.96041498
Si       6.97320010       3.29188894       4.51228285
Si       6.31186800       5.46895085       8.05972737
Si       5.18002140       2.67642868       9.20735042
Si       1.96351302       4.95491043       1.19602337
Si       6.99593112       2.70205910       2.46676429
Si       4.40747041       4.53982441       8.45751922
Si       6.02335522       4.67842511       3.19287763
Si       1.92030405       0.90601623       0.82888814
Si       4.78268538       8.99748294       9.18009820
Si       5.15616821       2.77010498       3.54387800
24
Lattice="6.875049106523347 -1.8270740871145592 0.25016404605759474 0.686452570841606 8.150346890421924 0.27384848314767096 2.064732587838709 2.956367707556972 9.6461319622924" Properties=species:S:1:pos:R:3 unique_starting_index=94 config_type=initial n_minim_iter=6 stress="-6.89379954653116e-06 3.866749382206097e-05 -2.3495958501834267e-05 3.866749382206097e-05 -4.3292736614806096e-05 2.3610813295590693e-05 -2.3495958501834267e-05 2.3610813295590693e-05 4.93644415027419e-05" pbc="T T T"
Si       8.43549536       5.84784201       7.94059344
Si      -0.30939715       3.04258177       3.70086488
Si       2.77534062       6.93487410       1.46642345
Si       6.35075836       9.56441797       7.82287408
Si       5.32847698       1.54074398       1.82770178
Si       5.91483210       4.56272652       9.94378938
Si       4.52035309       0.73804811       3.61653347
Si       3.68591607       0.07168911       1.76392616
Si       6.75516022       0.43365820       5.93264656
Si       7.15216562       6.48299546       6.37678194
Si       4.70581913       6.29108670       9.61691382
Si       5.43795341       2.07219176       5.52684375
Si       1.24621141       6.23526712       2.75948041
Si       3.02807865       6.08103858       7.96057522
Si       6.97329522       3.29186775       4.51231722
Si       6.31197300       5.46883777       8.05983636
Si       5.17999908       2.67643311       9.20744880
Si       1.96351634       4.95477385       1.19604492
Si       6.99608902       2.70200734       2.46674496
Si       4.40751793       4.53975484       8.45759743
Si       6.02346774       4.67826379       3.19283425
Si       1.92039676       0.90601018       0.82887348
Si       4.78267608       8.99725198       9.18024557
Si       5.15629868       2.77002871       3.54391180
24
Lattice="6.875376881920506 -1.827297882630121 0.2502214968077365 0.6862388129111747 8.150393095642475 0.27373117537011676 2.0647772356705825 2.9561949315231186 9.645917928559172" Properties=species:S:1:pos:R:3 unique_starting_index=94 config_type=initial n_minim_iter=7 stress="0.00017052830121747423 -0.00012872179281622667 2.4450387320717025e-05 -0.00012872179281622667 -1.613048552184776e-05 -7.480711080277335e-06 2.4450387320717025e-05 -7.480711080277335e-06 -4.6258993908016487e-05" pbc="T T T"
Si       8.43572078       5.84750766       7.94038680
Si      -0.30944491       3.04254539       3.70072595
Si       2.77523428       6.93482518       1.46631607
Si       6.35069552       9.56416251       7.82261627
Si       5.32868169       1.54058534       1.82763986
Si       5.91502686       4.56247721       9.94353920
Si       4.52057494       0.73788543       3.61645544
Si       3.68609285       0.07156940       1.76389236
Si       6.75542069       0.43341121       5.93257471
Si       7.15229205       6.48283983       6.37670007
Si       4.70586839       6.29084271       9.61668344
Si       5.43813240       2.07197742       5.52675765
Si       1.24609489       6.23525258       2.75935887
Si       3.02807706       6.08085438       7.96038253
Si       6.97344648       3.29166078       4.51226767
Si       6.31214958       5.46856520       8.05967178
Si       5.18011460       2.67615316       9.20724465
Si       1.96339270       4.95477041       1.19592722
Si       6.99628087       2.70175340       2.46673469
Si       4.40765790       4.53954264       8.45734699
Si       6.02353462       4.67802107       3.19267294
Si       1.92049607       0.90595872       0.82885003
Si       4.78258518       8.99704485       9.17997027
Si       5.15647869       2.76984325       3.54385343
24
Lattice="6.875113775091523 -1.8271840463906006 0.250223502920268 0.6864198143665018 8.15063882988787 0.27354086800142857 2.0647329292842964 2.956112822855729 9.645787274285231" Properties=species:S:1:pos:R:3 unique_starting_index=94 config_type=initial n_minim_iter=8 stress="-7.446377872606725e-05 -3.041116186632281e-05 -6.781913040785207e-05 -3.041116186632281e-05 3.939572262158292e-05 2.1194439267053865e-06 -6.781913040785207e-05 2.1194439267053865e-06 -5.488936572898794e-06" pbc="T T T"
Si       8.43560701       5.84765977       7.94012586
Si      -0.30933890       3.04252154       3.70057824
Si       2.77526933       6.93505644       1.46615594
Si       6.35053801       9.56434116       7.82230863
Si       5.32862109       1.54075278       1.82747992
Si       5.91497136       4.56259598       9.94328725
Si       4.52052561       0.73793775       3.61636153
Si       3.68601812       0.07165825       1.76381804
Si       6.75513773       0.43352977       5.93253749
Si       7.15219896       6.48324686       6.37667687
Si       4.70583474       6.29087492       9.61651205
Si       5.43798709       2.07205307       5.52668974
Si       1.24620628       6.23542703       2.75921864
Si       3.02813662       6.08084292       7.96024859
Si       6.97318025       3.29190751       4.51222643
Si       6.31214885       5.46866686       8.05952977
Si       5.17984315       2.67611073       9.20706273
Si       1.96332287       4.95498736       1.19571625
Si       6.99608415       2.70187274       2.46670116
Si       4.40769974       4.53958778       8.45707059
Si       6.02335973       4.67812421       3.19237497
Si       1.92054719       0.90603020       0.82880657
Si       4.78248195       8.99719273       9.17968740
Si       5.15644142       2.76996962       3.54378250
24
Lattice="6.875218917443177 -1.8270106994111746 0.2504396334949591 0.6866276240854389 8.150568880207246 0.273492078137304 2.065124949749627 2.95604896741973 9.645798067645714" Properties=species:S:1:pos:R:3 unique_starting_index=94 config_type=initial n_minim_iter=9 stress="4.180436255301002e-05 7.59126797475647e-05 8.615442464820519e-05 7.59126797475647e-05 -4.09236999850142e-05 1.0003044514508773e-06 8.615442464820519e-05 1.0003044514508773e-06 -2.1427915086751373e-05" pbc="T T T"
Si       8.43617120       5.84770194       7.94029357
Si      -0.30916129       3.04245846       3.70051729
Si       2.77551102       6.93504631       1.46618857
Si       6.35104939       9.56429113       7.82239115
Si       5.32884834       1.54085078       1.82760294
Si       5.91549527       4.56259662       9.94338218
Si       4.52077310       0.73799088       3.61645830
Si       3.68616384       0.07174992       1.76389001
Si       6.75544513       0.43365728       5.93273947
Si       7.15267318       6.48336161       6.37688764
Si       4.70635817       6.29082099       9.61659662
Si       5.43831533       2.07210786       5.52682311
Si       1.24645680       6.23538490       2.75920435
Si       3.02858827       6.08075122       7.96029129
Si       6.97349269       3.29203179       4.51242998
Si       6.31268687       5.46868404       8.05965791
Si       5.18022772       2.67611563       9.20715699
Si       1.96346095       4.95498468       1.19569363
Si       6.99637268       2.70195910       2.46690736
Si       4.40818901       4.53956258       8.45710628
Si       6.02366120       4.67815531       3.19244634
Si       1.92066764       0.90606118       0.82885060
Si       4.78300516       8.99713012       9.17972233
Si       5.15671835       2.77001691       3.54390927
24
Lattice="6.8753035546079655 -1.8271627536334694 0.250447712925123 0.6864730322084018 8.150598290322812 0.27324221930504694 2.065015369371938 2.955736054961432 9.645736735179021" Properties=species:S:1:pos:R:3 unique_starting_index=94 config_type=initial n_minim_iter=10 stress="-0.0001122352746880306 -7.632267983694832e-05 7.708347129234412e-05 -7.632267983694832e-05 -9.645387002364523e-05 -1.8281602927183274e-06 7.708347129234412e-05 -1.8281602927183274e-06 0.00012907891576914256" pbc="T T T"
Si       8.43618600       5.84722633       7.94005654
Si      -0.30926068       3.04241300       3.70039209
Si       2.77534164       6.93506774       1.46603394
Si       6.35058593       9.56385538       7.82207732
Si       5.32895382       1.54072013       1.82746107
Si       5.91539314       4.56208950       9.94324688
Si       4.52090192       0.73771756       3.61631436
Si       3.68624025       0.07173691       1.76371912
Si       6.75541422       0.43346437       5.93280656
Si       7.15252160       6.48334415       6.37694953
Si       4.70620548       6.29041657       9.61651052
Si       5.43831589       2.07184605       5.52674513
Si       1.24631470       6.23539980       2.75906001
Si       3.02850634       6.08036910       7.96022471
Si       6.97330217       3.29194383       4.51245029
Si       6.31278746       5.46836142       8.05948606
Si       5.17993679       2.67574113       9.20706101
Si       1.96316543       4.95498092       1.19539175
Si       6.99645869       2.70167220       2.46689581
Si       4.40829652       4.53920051       8.45686666
Si       6.02355147       4.67786976       3.19203954
Si       1.92080981       0.90601731       0.82880573
Si       4.78261498       8.99683013       9.17941161
Si       5.15663487       2.76976340       3.54384680
24
Lattice="6.875448878818694 -1.8271182447445067 0.25031677925327045 0.686583959812099 8.150771297907195 0.2731625619530836 2.0649136257742158 2.955754443704646 9.645343463341227" Properties=species:S:1:pos:R:3 unique_starting_index=94 config_type=initial n_minim_iter=11 stress="1.5819449920992443e-05 2.510825721791318e-05 -2.140470729350808e-05 2.510825721791318e-05 5.516155176608619e-06 2.4380203728890737e-06 -2.140470729350808e-05 2.4380203728890737e-06 -7.198998497118388e-05" pbc="T T T"
Si       8.43634992       5.84736079       7.93956635
Si      -0.30930522       3.04245772       3.70024698
Si       2.77545573       6.93525566       1.46589920
Si       6.35063178       9.56403625       7.82161092
Si       5.32909333       1.54080365       1.82726651
Si       5.91541174       4.56215967       9.94274887
Si       4.52098433       0.73773316       3.61605909
Si       3.68631533       0.07179492       1.76354701
Si       6.75546791       0.43355277       5.93248942
Si       7.15264407       6.48358959       6.37661713
Si       4.70621499       6.29051014       9.61606907
Si       5.43837986       2.07191619       5.52642961
Si       1.24636049       6.23554846       2.75890889
Si       3.02852132       6.08043965       7.95987843
Si       6.97338696       3.29211373       4.51216926
Si       6.31291168       5.46849411       8.05905318
Si       5.17985922       2.67579145       9.20662107
Si       1.96319619       4.95510937       1.19523881
Si       6.99665186       2.70177448       2.46669062
Si       4.40835807       4.53927738       8.45643044
Si       6.02369396       4.67798857       3.19171412
Si       1.92088428       0.90605625       0.82873291
Si       4.78261186       8.99701644       9.17892538
Si       5.15671075       2.76984041       3.54361413
24
Lattice="6.87556818863301 -1.827294850763224 0.2502873778349683 0.6864141359076537 8.15085807247841 0.2730044827643282 2.0647846804976995 2.955568414382131 9.645291763189501" Properties=species:S:1:pos:R:3 unique_starting_index=94 config_type=initial n_minim_iter=12 stress="-1.3229283660307305e-05 -2.784578553120945e-06 3.0359111059756964e-06 -2.784578553120945e-06 -9.536612019871802e-06 3.231478684852183e-06 3.0359111059756964e-06 3.231478684852183e-06 -2.692640257809796e-05" pbc="T T T"
Si       8.43640944       5.84697829       7.93937796
Si      -0.30940558       3.04248096       3.70027511
Si       2.77529760       6.93534028       1.46581687
Si       6.35017640       9.56376096       7.82138260
Si       5.32916870       1.54062343       1.82716418
Si       5.91532903       4.56190074       9.94251272
Si       4.52106712       0.73746284       3.61586322
Si       3.68636691       0.07166443       1.76341147
Si       6.75551072       0.43346254       5.93247121
Si       7.15247887       6.48359240       6.37660761
Si       4.70609514       6.29015082       9.61600812
Si       5.43838426       2.07173079       5.52633944
Si       1.24615443       6.23565192       2.75881318
Si       3.02844184       6.08017959       7.95985531
Si       6.97321542       3.29210767       4.51211856
Si       6.31294545       5.46825675       8.05899001
Si       5.17958740       2.67552172       9.20656575
Si       1.96293576       4.95516717       1.19503239
Si       6.99676689       2.70158299       2.46672884
Si       4.40842951       4.53909409       8.45625438
Si       6.02369957       4.67773236       3.19138725
Si       1.92091363       0.90602476       0.82870926
Si       4.78223238       8.99693169       9.17868057
Si       5.15660687       2.76970004       3.54350563
24
Lattice="6.87566858558052 -1.827400164508614 0.25024446463025546 0.6862788207198709 8.150768793332631 0.27286819410547863 2.0646506534189415 2.9553509310746673 9.645315605631655" Properties=species:S:1:pos:R:3 unique_starting_index=94 config_type=initial n_minim_iter=13 stress="-9.033577626999385e-06 -3.373007622174202e-06 2.5845749875236826e-07 -3.373007622174202e-06 -1.4538760924797712e-05 2.309493018669334e-06 2.5845749875236826e-07 2.309493018669334e-06 -1.573067232435111e-05" pbc="T T T"
Si       8.43645658       5.84652315       7.93922016
Si      -0.30948327       3.04246105       3.70037407
Si       2.77512169       6.93521315       1.46574562
Si       6.34976957       9.56336335       7.82121942
Si       5.32922240       1.54045760       1.82705233
Si       5.91531437       4.56153753       9.94246433
Si       4.52110802       0.73722329       3.61575211
Si       3.68639300       0.07148879       1.76325568
Si       6.75558058       0.43341311       5.93247326
Si       7.15234144       6.48343048       6.37659220
Si       4.70597125       6.28983725       9.61611652
Si       5.43834918       2.07157232       5.52628877
Si       1.24603015       6.23562980       2.75870480
Si       3.02839121       6.07981802       7.95989583
Si       6.97304707       3.29206711       4.51206847
Si       6.31296531       5.46796659       8.05897335
Si       5.17935295       2.67525551       9.20657624
Si       1.96277666       4.95513103       1.19484099
Si       6.99677122       2.70137688       2.46681301
Si       4.40841703       4.53877707       8.45609518
Si       6.02370787       4.67741882       3.19111751
Si       1.92089458       0.90601878       0.82867947
Si       4.78186538       8.99671634       9.17856061
Si       5.15653443       2.76948606       3.54335211
24
Lattice="6.8757749445156255 -1.8275021099789517 0.25023514748637515 0.6861686501223746 8.150751311337043 0.2727282237980338 2.0645747560868455 2.955157797134402 9.64530423540817" Properties=species:S:1:pos:R:3 unique_starting_index=94 config_type=initial n_minim_iter=14 stress="-9.464703100162397e-07 -3.857158939161632e-06 4.338864306609279e-07 -3.857158939161632e-06 3.5867075416737266e-07 -3.5049337682133484e-07 4.338864306609279e-07 -3.5049337682133484e-07 -1.5630731222492615e-06" pbc="T T T"
Si       8.43654728       5.84611933       7.93896910
Si      -0.30954058       3.04247211       3.70045210
Si       2.77492391       6.93509772       1.46563278
Si       6.34942518       9.56311192       7.82100811
Si       5.32934331       1.54024643       1.82695173
Si       5.91527520       4.56123032       9.94241989
Si       4.52118623       0.73701495       3.61564663
Si       3.68645306       0.07124233       1.76309022
Si       6.75575316       0.43338506       5.93252860
Si       7.15231690       6.48329741       6.37657693
Si       4.70595355       6.28945295       9.61621149
Si       5.43828604       2.07153085       5.52620754
Si       1.24603668       6.23565775       2.75853412
Si       3.02841716       6.07952530       7.95991435
Si       6.97290779       3.29209929       4.51209076
Si       6.31305999       5.46775353       8.05895767
Si       5.17921999       2.67502331       9.20656540
Si       1.96260392       4.95514177       1.19473556
Si       6.99680169       2.70122405       2.46686195
Si       4.40847437       4.53855762       8.45598464
Si       6.02370479       4.67722610       3.19083091
Si       1.92090893       0.90609713       0.82860991
Si       4.78151533       8.99661836       9.17843335
Si       5.15647972       2.76923988       3.54329703
24
Lattice="6.875902491199613 -1.8275337823642397 0.25023659992345926 0.6861222200135916 8.150646950203116 0.2725614277374487 2.064538850156488 2.954915445635097 9.645255062433153" Properties=species:S:1:pos:R:3 unique_starting_index=94 config_type=initial n_minim_iter=15 stress="1.0043088944388413e-05 2.7175942583418178e-06 -6.885940939494027e-06 2.7175942583418178e-06 1.5103787580577077e-05 -4.940494407930658e-06 -6.885940939494027e-06 -4.940494407930658e-06 1.8936922089066485e-05" pbc="T T T"
Si       8.43675552       5.84560871       7.93852554
Si      -0.30959049       3.04243838       3.70049845
Si       2.77481839       6.93507018       1.46536717
Si       6.34910251       9.56285706       7.82064931
Si       5.32955599       1.53995265       1.82688704
Si       5.91536819       4.56083757       9.94237229
Si       4.52131012       0.73674611       3.61544036
Si       3.68659742       0.07090763       1.76289842
Si       6.75602719       0.43341298       5.93267530
Si       7.15245602       6.48317763       6.37651453
Si       4.70598422       6.28901036       9.61640432
Si       5.43820575       2.07153366       5.52624865
Si       1.24601764       6.23563528       2.75840486
Si       3.02851743       6.07921881       7.95990133
Si       6.97277090       3.29223965       4.51215881
Si       6.31326808       5.46750652       8.05899049
Si       5.17916481       2.67473697       9.20653081
Si       1.96243261       4.95493958       1.19460599
Si       6.99687497       2.70111218       2.46688328
Si       4.40868124       4.53825405       8.45587588
Si       6.02375081       4.67694621       3.19044931
Si       1.92093916       0.90619373       0.82850694
Si       4.78110376       8.99646017       9.17823038
Si       5.15651824       2.76905729       3.54314217
24
Lattice="6.87601829857092 -1.8275752000052854 0.25034973330934684 0.6860623279606274 8.15054222730542 0.2725347929010857 2.064686327445387 2.9548165468886287 9.645308384534507" Properties=species:S:1:pos:R:3 unique_starting_index=94 config_type=initial n_minim_iter=16 stress="1.597950412426486e-05 5.413805935594293e-06 1.079307626500368e-05 5.413805935594293e-06 1.442909994283752e-05 -1.3690417907601002e-05 1.079307626500368e-05 -1.3690417907601002e-05 1.9710742231972626e-05" pbc="T T T"
Si       8.43705615       5.84524752       7.93845557
Si      -0.30963618       3.04243072       3.70060611
Si       2.77471688       6.93505041       1.46530178
Si       6.34900049       9.56271684       7.82068807
Si       5.32978075       1.53976326       1.82688822
Si       5.91570628       4.56060174       9.94255677
Si       4.52145341       0.73655646       3.61548425
Si       3.68678501       0.07070589       1.76287058
Si       6.75629540       0.43344779       5.93289523
Si       7.15264085       6.48313458       6.37660812
Si       4.70612915       6.28873017       9.61665854
Si       5.43829245       2.07151608       5.52629678
Si       1.24596945       6.23558496       2.75843960
Si       3.02871870       6.07909139       7.96001230
Si       6.97276859       3.29229488       4.51233502
Si       6.31354276       5.46737721       8.05921294
Si       5.17937385       2.67455945       9.20661328
Si       1.96235554       4.95482992       1.19461240
Si       6.99697195       2.70103742       2.46705900
Si       4.40894965       4.53815828       8.45596170
Si       6.02383614       4.67677349       3.19033884
Si       1.92097284       0.90621417       0.82850520
Si       4.78093235       8.99630261       9.17827175
Si       5.15661579       2.76889694       3.54322279
24
Lattice="6.876112986679659 -1.827682716883773 0.2502154839408026 0.6859207687730112 8.1504967046329 0.27270234151854966 2.0645141452759357 2.954970549909815 9.64549919918541" Properties=species:S:1:pos:R:3 unique_starting_index=94 config_type=initial n_minim_iter=17 stress="1.4818851716924306e-05 3.231735772379989e-06 -4.500562725581689e-06 3.231735772379989e-06 2.05380997818751e-05 2.2568909343823984e-06 -4.500562725581689e-06 2.2568909343823984e-06 2.580574379909294e-05" pbc="T T T"
Si       8.43703513       5.84502566       7.93834810
Si      -0.30982242       3.04251845       3.70084541
Si       2.77443774       6.93508548       1.46537202
Si       6.34853716       9.56278620       7.82087982
Si       5.32997737       1.53963881       1.82694402
Si       5.91564852       4.56062773       9.94276453
Si       4.52146535       0.73642676       3.61543713
Si       3.68694311       0.07050766       1.76280268
Si       6.75631688       0.43362121       5.93299889
Si       7.15254206       6.48325206       6.37672442
Si       4.70592840       6.28869140       9.61709427
Si       5.43818142       2.07157053       5.52633080
Si       1.24577488       6.23561789       2.75864403
Si       3.02864755       6.07921957       7.96029772
Si       6.97255687       3.29241619       4.51241295
Si       6.31353794       5.46747706       8.05949548
Si       5.17931381       2.67462122       9.20672318
Si       1.96220540       4.95482030       1.19475094
Si       6.99693748       2.70099122       2.46714618
Si       4.40890954       4.53825412       8.45613365
Si       6.02372276       4.67668616       3.19018046
Si       1.92101494       0.90624267       0.82848676
Si       4.78035049       8.99637716       9.17848036
Si       5.15654467       2.76872541       3.54315889
24
Lattice="6.876184563497621 -1.827798413244469 0.25015123491383456 0.6857427729207698 8.150335003961114 0.27276944966188615 2.064387685873417 2.9549535971673877 9.645596531194574" Properties=species:S:1:pos:R:3 unique_starting_index=94 config_type=initial n_minim_iter=18 stress="7.142173812759156e-06 2.9073566054957543e-06 -1.0734915017297235e-06 2.9073566054957543e-06 7.622456186060892e-06 -7.144414030628362e-07 -1.0734915017297235e-06 -7.144414030628362e-07 1.3851185841833354e-05" pbc="T T T"
Si       8.43701099       5.84452629       7.93810574
Si      -0.30994063       3.04249956       3.70099940
Si       2.77405158       6.93497650       1.46534985
Si       6.34800568       9.56258337       7.82094497
Si       5.33010605       1.53935164       1.82692646
Si       5.91563368       4.56045314       9.94291452
Si       4.52142068       0.73616219       3.61537429
Si       3.68712038       0.07024085       1.76277659
Si       6.75629959       0.43373937       5.93313541
Si       7.15240142       6.48317201       6.37676101
Si       4.70573796       6.28843897       9.61750456
Si       5.43806994       2.07146877       5.52635075
Si       1.24558599       6.23549400       2.75874555
Si       3.02865400       6.07918856       7.96048638
Si       6.97229008       3.29237751       4.51241078
Si       6.31360257       5.46744390       8.05966601
Si       5.17931021       2.67449499       9.20677428
Si       1.96204146       4.95473503       1.19490798
Si       6.99698351       2.70091768       2.46728815
Si       4.40889402       4.53816574       8.45621333
Si       6.02349355       4.67644699       3.18993061
Si       1.92114173       0.90624379       0.82846931
Si       4.77975925       8.99624414       9.17850076
Si       5.15642947       2.76855363       3.54307844
24
Lattice="6.876251955786756 -1.8279687290478153 0.25007325348545056 0.6855096896135774 8.150212465480461 0.2728304334059364 2.0642195726128905 2.954935600640659 9.645621260563601" Properties=species:S:1:pos:R:3 unique_starting_index=94 config_type=initial n_minim_iter=19 stress="-3.2199731907587095e-06 -4.82910813066559e-06 -3.995266470235911e-06 -4.82910813066559e-06 -1.0558488956241076e-05 -2.3786072805065538e-07 -3.995266470235911e-06 -2.3786072805065538e-07 -4.369490332371966e-06" pbc="T T T"
Si       8.43694678       5.84390543       7.93769567
Si      -0.31006751       3.04247814       3.70104004
Si       2.77360726       6.93492873       1.46523969
Si       6.34732454       9.56231279       7.82093535
Si       5.33025677       1.53899857       1.82693395
Si       5.91563214       4.56033980       9.94291020
Si       4.52139589       0.73590151       3.61533858
Si       3.68717968       0.06984636       1.76262631
Si       6.75620522       0.43383741       5.93330259
Si       7.15214820       6.48308746       6.37672291
Si       4.70544798       6.28819904       9.61798269
Si       5.43786285       2.07135709       5.52621313
Si       1.24526453       6.23539521       2.75887753
Si       3.02870888       6.07923011       7.96063903
Si       6.97193376       3.29229294       4.51238046
Si       6.31363379       5.46745748       8.05979844
Si       5.17924326       2.67432746       9.20683138
Si       1.96197785       4.95461570       1.19501541
Si       6.99697037       2.70078435       2.46740704
Si       4.40887903       4.53812223       8.45625188
Si       6.02319387       4.67624081       3.18954260
Si       1.92134080       0.90621467       0.82848557
Si       4.77907882       8.99622861       9.17847088
Si       5.15618430       2.76828352       3.54299780
24
Lattice="6.8762418685788065 -1.8280407870985516 0.25009611921610175 0.685451802885871 8.150332922477354 0.2729508876886984 2.0642625324041965 2.9551037694807993 9.645615690547459" Properties=species:S:1:pos:R:3 unique_starting_index=94 config_type=initial n_minim_iter=20 stress="-1.477236270094796e-05 -2.5631657221389048e-06 1.8133838738521127e-06 -2.5631657221389048e-06 -1.2923527286706688e-05 6.219697639220585e-06 1.8133838738521127e-06 6.219697639220585e-06 -2.129856732296486e-05" pbc="T T T"
Si       8.43710850       5.84365863       7.93737881
Si      -0.31004885       3.04253167       3.70106825
Si       2.77328643       6.93505635       1.46526713
Si       6.34696778       9.56244660       7.82099857
Si       5.33041533       1.53882969       1.82704000
Si       5.91593457       4.56048051       9.94303338
Si       4.52137908       0.73575271       3.61533751
Si       3.68723937       0.06966533       1.76245498
Si       6.75613662       0.43409276       5.93351044
Si       7.15206763       6.48337295       6.37676971
Si       4.70542709       6.28818182       9.61843986
Si       5.43774063       2.07141564       5.52614990
Si       1.24510225       6.23552987       2.75902710
Si       3.02905918       6.07960379       7.96081440
Si       6.97166560       3.29249657       4.51252376
Si       6.31381278       5.46783145       8.05998392
Si       5.17934100       2.67450465       9.20692326
Si       1.96207830       4.95473234       1.19522007
Si       6.99693485       2.70080723       2.46750396
Si       4.40913794       4.53840615       8.45640846
Si       6.02301501       4.67623380       3.18927585
Si       1.92154130       0.90629254       0.82855479
Si       4.77876355       8.99665352       9.17854362
Si       5.15605540       2.76832708       3.54287626
24
Lattice="6.876281077389977 -1.828064251962452 0.2501220764473043 0.6854325662354699 8.150345460652224 0.2729426475119971 2.0642996872761823 2.9550924672925767 9.64555914855404" Properties=species:S:1:pos:R:3 unique_starting_index=94 config_type=initial n_minim_iter=21 stress="-1.732512583105927e-05 -4.6141974227933117e-07 -3.3805813004097384e-06 -4.6141974227933117e-07 -2.5051382540674245e-05 2.9227178976225955e-06 -3.3805813004097384e-06 2.9227178976225955e-06 -2.0729034413851083e-05" pbc="T T T"
Si       8.43732270       5.84328128       7.93694920
Si      -0.31011961       3.04250257       3.70107876
Si       2.77309394       6.93511592       1.46528970
Si       6.34671917       9.56240051       7.82097414
Si       5.33062536       1.53859487       1.82705137
Si       5.91621875       4.56043830       9.94297331
Si       4.52140531       0.73563829       3.61525256
Si       3.68734645       0.06955867       1.76238651
Si       6.75609534       0.43416268       5.93360440
Si       7.15205769       6.48351587       6.37669016
Si       4.70547882       6.28804323       9.61881825
Si       5.43762451       2.07138828       5.52598572
Si       1.24499843       6.23554627       2.75904732
Si       3.02944972       6.07981128       7.96087762
Si       6.97142272       3.29259688       4.51256054
Si       6.31393305       5.46800798       8.06007167
Si       5.17943924       2.67453970       9.20687270
Si       1.96218896       4.95474409       1.19538766
Si       6.99698196       2.70075825       2.46745489
Si       4.40942550       4.53837160       8.45643747
Si       6.02290611       4.67609178       3.18898992
Si       1.92169319       0.90639321       0.82861680
Si       4.77859004       8.99686659       9.17847558
Si       5.15599412       2.76824655       3.54276990
