16
Lattice="5.455803274199475 0.30674194498960144 0.38505361469748817 2.12354834768843 6.641016871936173 -0.32152415626279474 1.0974278222552782 0.3474503106380147 9.980359090080883" Properties=species:S:1:pos:R:3 unique_starting_index=92 config_type=initial n_minim_iter=1 energy=-2616.026239847231 free_energy=-2616.026239847231 pbc="T T T"
Si       3.00838893       7.25596056       4.28376492
Si       0.47918488       0.45943720       0.41106421
Si       3.28724565       5.39454445       5.25292272
Si       3.12189133       3.53902677       4.26115332
Si       7.76604464       4.43756472       8.82479028
Si       4.12586194       3.20610463       7.93733085
Si       4.81206169       2.23186661       4.30979597
Si       3.09451503       5.40656139       3.15998773
Si       3.75193055       5.17592504       7.25473519
Si       2.76125699       2.22107044       9.31218746
Si       4.48945046       3.67403288       5.88230311
Si       3.76555377       5.45095895       9.30614474
Si       5.92736549       0.96818692       2.91516997
Si       2.45142186       3.76063518       6.34742351
Si       7.47340076       5.76155691       1.70308858
Si       2.07030747       1.49854297       1.39812507
16
Lattice="5.455565576874827 0.3068429181800183 0.3849637863749379 2.123586372095645 6.641072554178488 -0.32160167504911147 1.0971638436796685 0.34746675971806407 9.981171647438893" Properties=species:S:1:pos:R:3 unique_starting_index=92 config_type=initial n_minim_iter=2 stress="3.843632347740029e-05 3.451769592684248e-05 1.650676540720157e-05 3.451769592684248e-05 0.00021328187965552413 -1.6833431032208013e-05 1.650676540720157e-05 -1.6833431032208013e-05 0.0005172121363565215" pbc="T T T"
Si       3.00829264       7.25603332       4.28404797
Si       0.47920056       0.45947133       0.41104528
Si       3.28708730       5.39460674       5.25330182
Si       3.12172835       3.53909826       4.26146227
Si       7.76557307       4.43769673       8.82537438
Si       4.12557447       3.20619868       7.93788709
Si       4.81179051       2.23194730       4.31002331
Si       3.09443088       5.40660841       3.16019013
Si       3.75170961       5.17601891       7.25523331
Si       2.76096133       2.22112107       9.31291848
Si       4.48917570       3.67412963       5.88267428
Si       3.76529861       5.45105408       9.30683571
Si       5.92709749       0.96832297       2.91530559
Si       2.45122814       3.76069324       6.34791948
Si       7.47314183       5.76166391       1.70307415
Si       2.07017301       1.49857069       1.39819757
16
Lattice="5.455235889311682 0.3069075806059764 0.3847956560939484 2.123564105593866 6.640810042556536 -0.3216396445474604 1.0968048962778647 0.3474984228551012 9.980993210197266" Properties=species:S:1:pos:R:3 unique_starting_index=92 config_type=initial n_minim_iter=3 stress="-0.00048729222303726765 4.984889150333817e-05 -0.00014743868315570869 4.984889150333817e-05 -0.00031139347892177955 5.3288592788219026e-05 -0.00014743868315570869 5.3288592788219026e-05 -1.665168083818675e-05" pbc="T T T"
Si       3.00808253       7.25576651       4.28390099
Si       0.47923263       0.45949867       0.41096181
Si       3.28681216       5.39441812       5.25316831
Si       3.12146485       3.53901575       4.26135898
Si       7.76487786       4.43760853       8.82504616
Si       4.12515431       3.20616828       7.93761899
Si       4.81139147       2.23191214       4.30977740
Si       3.09426505       5.40638584       3.16008480
Si       3.75135311       5.17589118       7.25498962
Si       2.76053443       2.22108944       9.31273119
Si       4.48875404       3.67406118       5.88243604
Si       3.76489834       5.45092858       9.30659964
Si       5.92673757       0.96841594       2.91512933
Si       2.45091805       3.76059997       6.34781288
Si       7.47272573       5.76144719       1.70286230
Si       2.06995276       1.49851505       1.39812073
16
Lattice="5.455723760238981 0.30694586523666595 0.38479933065497185 2.1237899151843305 6.641107097801435 -0.3217279623435984 1.0969406714580083 0.34736090310823364 9.980699222506113" Properties=species:S:1:pos:R:3 unique_starting_index=92 config_type=initial n_minim_iter=4 stress="-4.9152353658364305e-05 3.600730823294654e-05 -0.00012961561927704831 3.600730823294654e-05 0.00030764661098863535 -5.3004697851792645e-05 -0.00012961561927704831 -5.3004697851792645e-05 -0.00015266599261710599" pbc="T T T"
Si       3.00840569       7.25600267       4.28363704
Si       0.47943168       0.45960041       0.41080236
Si       3.28715434       5.39454119       5.25300704
Si       3.12174095       3.53915903       4.26127512
Si       7.76554205       4.43763135       8.82478121
Si       4.12561641       3.20624840       7.93725381
Si       4.81179860       2.23192227       4.30951144
Si       3.09467652       5.40648172       3.15996303
Si       3.75176211       5.17610380       7.25460988
Si       2.76079347       2.22104886       9.31248952
Si       4.48913634       3.67417166       5.88217603
Si       3.76535890       5.45110795       9.30624559
Si       5.92743274       0.96854049       2.91513700
Si       2.45109882       3.76071237       6.34770488
Si       7.47342306       5.76152485       1.70278577
Si       2.06997446       1.49851988       1.39806711
16
Lattice="5.455927312694603 0.30689006562127924 0.3849813180806471 2.123805459015381 6.640701213174644 -0.32161662279492537 1.0972886779789992 0.3474116204848443 9.980974727332079" Properties=species:S:1:pos:R:3 unique_starting_index=92 config_type=initial n_minim_iter=5 stress="9.371423918308532e-05 1.408273440444819e-05 1.4055463813296503e-06 1.408273440444819e-05 -3.3652167082577756e-05 6.493047647936035e-05 1.4055463813296503e-06 6.493047647936035e-05 -6.054671671570854e-06" pbc="T T T"
Si       3.00859635       7.25557344       4.28389932
Si       0.47949614       0.45958167       0.41080403
Si       3.28739059       5.39423752       5.25329691
Si       3.12193305       3.53897394       4.26152214
Si       7.76604677       4.43737472       8.82528740
Si       4.12599977       3.20611516       7.93756595
Si       4.81206641       2.23177867       4.30974152
Si       3.09487805       5.40613814       3.16019158
Si       3.75207955       5.17585013       7.25492041
Si       2.76116157       2.22098149       9.31282259
Si       4.48944270       3.67397583       5.88247734
Si       3.76575772       5.45085781       9.30662265
Si       5.92776584       0.96847533       2.91540377
Si       2.45132827       3.76054155       6.34799824
Si       7.47370575       5.76110141       1.70311358
Si       2.07003808       1.49842131       1.39817985
16
Lattice="5.455751226641019 0.306734994096622 0.3851586049722456 2.1235678171272645 6.640544832477691 -0.32191857027190324 1.0975898771959327 0.3468216178979441 9.981130446746848" Properties=species:S:1:pos:R:3 unique_starting_index=92 config_type=initial n_minim_iter=6 stress="-8.80834276029188e-05 -0.00016776758911782086 7.710598704367438e-05 -0.00016776758911782086 -1.0152326200518462e-05 -0.00016959966181607 7.710598704367438e-05 -0.00016959966181607 1.6094260603036315e-05" pbc="T T T"
Si       3.00847881       7.25509575       4.28369073
Si       0.47953245       0.45951628       0.41082337
Si       3.28732344       5.39375447       5.25322776
Si       3.12182853       3.53859957       4.26154864
Si       7.76600062       4.43664612       8.82547790
Si       4.12609355       3.20553662       7.93758050
Si       4.81194288       2.23136068       4.30975023
Si       3.09483773       5.40573059       3.16004799
Si       3.75203601       5.17532869       7.25482871
Si       2.76136029       2.22040012       9.31290759
Si       4.48939352       3.67347366       5.88246989
Si       3.76584639       5.45016497       9.30653927
Si       5.92768988       0.96811697       2.91555983
Si       2.45130822       3.76010008       6.34803626
Si       7.47343106       5.76065686       1.70309682
Si       2.06994563       1.49828721       1.39818068
16
Lattice="5.455714956511586 0.3075430512641805 0.385392509837374 2.1245223173656353 6.64059095659448 -0.32193835941478854 1.0980492750493982 0.3468140933740345 9.981315704547335" Properties=species:S:1:pos:R:3 unique_starting_index=92 config_type=initial n_minim_iter=7 stress="8.27453693199549e-05 0.00021572060089863836 -3.791206867769439e-05 0.00021572060089863836 -0.0001115459435555265 -0.0001520566861769648 -3.791206867769439e-05 -0.0001520566861769648 -7.246973187268547e-06" pbc="T T T"
Si       3.00967746       7.25499742       4.28391860
Si       0.47983775       0.45941093       0.41104596
Si       3.28822303       5.39392841       5.25360190
Si       3.12210844       3.53885234       4.26202212
Si       7.76699076       4.43768835       8.82618060
Si       4.12701139       3.20609666       7.93745658
Si       4.81206199       2.23175561       4.30946071
Si       3.09619243       5.40560148       3.16015168
Si       3.75279630       5.17593403       7.25488992
Si       2.76218382       2.22086330       9.31302091
Si       4.49002101       3.67390677       5.88245637
Si       3.76712117       5.45041007       9.30650644
Si       5.92802983       0.96861296       2.91571873
Si       2.45166677       3.76041359       6.34855357
Si       7.47457332       5.76117024       1.70349839
Si       2.07011223       1.49871087       1.39817688
16
Lattice="5.45535906651108 0.307390342309213 0.3856962795381493 2.1241258702632715 6.640710142525896 -0.3212662026046047 1.0984542443441896 0.3476508059341755 9.981632597273999" Properties=species:S:1:pos:R:3 unique_starting_index=92 config_type=initial n_minim_iter=8 stress="-0.0001335199891623264 -7.660805021007104e-05 1.748222280802338e-05 -7.660805021007104e-05 0.00011250676790027293 0.00021205962879186556 1.748222280802338e-05 0.00021205962879186556 1.1518082809600937e-05" pbc="T T T"
Si       3.00936237       7.25543992       4.28479630
Si       0.47997667       0.45938122       0.41123232
Si       3.28800195       5.39440881       5.25451956
Si       3.12168072       3.53921949       4.26278365
Si       7.76681591       4.43850098       8.82737204
Si       4.12711069       3.20689419       7.93789878
Si       4.81170047       2.23188864       4.30966265
Si       3.09624712       5.40574456       3.16084287
Si       3.75250420       5.17680156       7.25564100
Si       2.76246028       2.22178118       9.31353668
Si       4.48983522       3.67437660       5.88297386
Si       3.76721166       5.45126846       9.30722170
Si       5.92786387       0.96845026       2.91618821
Si       2.45141315       3.76115652       6.34936094
Si       7.47418957       5.76102837       1.70449460
Si       2.06995726       1.49895211       1.39836297
16
Lattice="5.455452160532969 0.3074858664252299 0.38606839682529703 2.1243103528878917 6.640131566845146 -0.3215690312157628 1.0991456499855643 0.34700926438818724 9.982343751596762" Properties=species:S:1:pos:R:3 unique_starting_index=92 config_type=initial n_minim_iter=9 stress="0.00011284414345866916 -0.00010841378716229069 -0.00019894510596990463 -0.00010841378716229069 -0.00014775338145982752 -1.532568908668388e-05 -0.00019894510596990463 -1.532568908668388e-05 0.00010967702223502852" pbc="T T T"
Si       3.00966778       7.25449656       4.28463791
Si       0.48033696       0.45919776       0.41140406
Si       3.28840925       5.39353131       5.25501722
Si       3.12150425       3.53861654       4.26339156
Si       7.76771667       4.43807726       8.82859409
Si       4.12793019       3.20651027       7.93814360
Si       4.81183010       2.23126034       4.30960004
Si       3.09718125       5.40478839       3.16089247
Si       3.75277241       5.17620026       7.25596083
Si       2.76331834       2.22120350       9.31419553
Si       4.49034347       3.67373711       5.88306893
Si       3.76819403       5.45027304       9.30750960
Si       5.92833402       0.96783210       2.91697502
Si       2.45150967       3.76075057       6.35008077
Si       7.47501076       5.76019436       1.70488459
Si       2.07015376       1.49908583       1.39831676
16
Lattice="5.455077476437793 0.3079892755168028 0.3869893426631037 2.1246878662630366 6.6403898273728075 -0.32127680151765786 1.1007723247282686 0.34701409111723214 9.982548380531446" Properties=species:S:1:pos:R:3 unique_starting_index=92 config_type=initial n_minim_iter=10 stress="-2.5764906113497e-05 0.0001130024503788615 0.00013622056061332843 0.0001130024503788615 -2.7323519171281774e-05 4.309882407057325e-05 0.00013622056061332843 4.309882407057325e-05 0.00010718553758004517" pbc="T T T"
Si       3.01066169       7.25477063       4.28499076
Si       0.48058571       0.45921549       0.41155681
Si       3.28943437       5.39384052       5.25559786
Si       3.12198999       3.53880107       4.26405511
Si       7.76896169       4.43891495       8.83006648
Si       4.12927311       3.20699236       7.93869863
Si       4.81220637       2.23157567       4.31019369
Si       3.09821644       5.40496498       3.16135263
Si       3.75396573       5.17666986       7.25651394
Si       2.76492634       2.22140903       9.31469028
Si       4.49127985       3.67409792       5.88358201
Si       3.77007214       5.45060498       9.30804905
Si       5.92854376       0.96811245       2.91808046
Si       2.45249188       3.76108775       6.35065375
Si       7.47544858       5.76074840       1.70613864
Si       2.07036058       1.49942745       1.39859027
16
Lattice="5.45514429261655 0.30799218582893495 0.38745914197788883 2.1246891596552318 6.640258740589821 -0.3211643072829216 1.1016253753862808 0.3469210309532067 9.982905660301645" Properties=species:S:1:pos:R:3 unique_starting_index=92 config_type=initial n_minim_iter=11 stress="5.752459788340789e-05 4.96957906915666e-06 3.147829660976041e-06 4.96957906915666e-06 -5.777866186586501e-05 4.0682269439983015e-05 3.147829660976041e-06 4.0682269439983015e-05 9.78958587985634e-05" pbc="T T T"
Si       3.01077747       7.25443214       4.28526174
Si       0.48099493       0.45924768       0.41179195
Si       3.28971406       5.39392005       5.25585014
Si       3.12187222       3.53844053       4.26471924
Si       7.76964544       4.43900866       8.83129782
Si       4.13006881       3.20712882       7.93914055
Si       4.81231493       2.23138945       4.31046412
Si       3.09894790       5.40465646       3.16157283
Si       3.75428898       5.17676753       7.25682629
Si       2.76583460       2.22120756       9.31526906
Si       4.49174765       3.67390721       5.88352621
Si       3.77121085       5.45046384       9.30853998
Si       5.92914986       0.96758965       2.91869303
Si       2.45269425       3.76121307       6.35129983
Si       7.47615790       5.76036692       1.70682530
Si       2.07051651       1.49964455       1.39869421
16
Lattice="5.455098469083479 0.30799457785429274 0.3877171011086035 2.1246545262991297 6.640474047834913 -0.3212719652361332 1.1021021463975147 0.34661457747615015 9.982952150285817" Properties=species:S:1:pos:R:3 unique_starting_index=92 config_type=initial n_minim_iter=12 stress="1.7851115151988855e-05 -5.5576199943711074e-06 -2.2112166349172424e-05 -5.5576199943711074e-06 3.1175557606620283e-06 -1.9815882096563346e-06 -2.2112166349172424e-05 -1.9815882096563346e-06 2.0491246619931427e-05" pbc="T T T"
Si       3.01057161       7.25467548       4.28521875
Si       0.48126695       0.45924546       0.41198779
Si       3.28973979       5.39394252       5.25564545
Si       3.12156821       3.53815261       4.26492220
Si       7.76980334       4.43891947       8.83187726
Si       4.13044688       3.20736450       7.93907757
Si       4.81232246       2.23114709       4.31054193
Si       3.09937356       5.40451323       3.16146196
Si       3.75440112       5.17672972       7.25661653
Si       2.76637752       2.22096597       9.31530134
Si       4.49180719       3.67388843       5.88347466
Si       3.77199995       5.45036020       9.30858332
Si       5.92956847       0.96721657       2.91883109
Si       2.45280015       3.76138973       6.35156387
Si       7.47658796       5.76029349       1.70701804
Si       2.07066582       1.49985598       1.39881466
16
Lattice="5.454982302393467 0.3077212707722855 0.3881634118256789 2.12426829356592 6.640096929540852 -0.32122608692928806 1.102906230128875 0.34633417613021467 9.982772913516218" Properties=species:S:1:pos:R:3 unique_starting_index=92 config_type=initial n_minim_iter=13 stress="-6.317174475453378e-05 -2.8808120813762453e-05 9.627440529776333e-06 -2.8808120813762453e-05 2.5780494284408705e-05 -2.318172045717972e-05 9.627440529776333e-06 -2.318172045717972e-05 -2.1603246096787852e-05" pbc="T T T"
Si       3.00998116       7.25423723       4.28538272
Si       0.48158381       0.45906789       0.41193330
Si       3.28947773       5.39337269       5.25520651
Si       3.12119612       3.53732321       4.26517621
Si       7.77013374       4.43820133       8.83263496
Si       4.13088992       3.20712581       7.93911964
Si       4.81208230       2.23064336       4.31073634
Si       3.09966528       5.40373154       3.16149581
Si       3.75445332       5.17663452       7.25635312
Si       2.76722664       2.22061552       9.31504040
Si       4.49153405       3.67358559       5.88354134
Si       3.77298678       5.44967271       9.30843628
Si       5.93008966       0.96658260       2.91947186
Si       2.45278567       3.76120647       6.35174231
Si       7.47679851       5.75935744       1.70742777
Si       2.07109477       1.50004318       1.39904143
16
Lattice="5.455061819644411 0.30764790635976896 0.3884376534135864 2.1242181390040953 6.639982577674609 -0.3214801318957226 1.103448768838834 0.3457662708651358 9.982806725368205" Properties=species:S:1:pos:R:3 unique_starting_index=92 config_type=initial n_minim_iter=14 stress="-8.398238639356852e-05 -1.4052528108066833e-05 1.8749486362951933e-05 -1.4052528108066833e-05 6.404751757901695e-05 -4.759413207553252e-05 1.8749486362951933e-05 -4.759413207553252e-05 -0.00011022605963141214" pbc="T T T"
Si       3.00974529       7.25389129       4.28538178
Si       0.48199279       0.45906924       0.41194886
Si       3.28941720       5.39276294       5.25474125
Si       3.12106643       3.53664267       4.26521924
Si       7.77085650       4.43773933       8.83293774
Si       4.13128568       3.20710033       7.93912522
Si       4.81196230       2.23030818       4.31083144
Si       3.10006587       5.40320274       3.16136807
Si       3.75467780       5.17634067       7.25629042
Si       2.76796370       2.21996249       9.31506606
Si       4.49143764       3.67332485       5.88347145
Si       3.77392818       5.44880152       9.30808528
Si       5.93071158       0.96626766       2.91981628
Si       2.45272195       3.76082457       6.35189074
Si       7.47728357       5.75884059       1.70749321
Si       2.07145904       1.50017933       1.39901317
16
Lattice="5.4552987868061935 0.3077262551494513 0.38842641763335245 2.124452314862533 6.639442233893771 -0.3217001840527105 1.1034850391837427 0.3454439689447774 9.983004410040747" Properties=species:S:1:pos:R:3 unique_starting_index=92 config_type=initial n_minim_iter=15 stress="-9.846994216029734e-06 2.273023454831295e-05 3.859130607100821e-06 2.273023454831295e-05 -1.1913269720085824e-05 -6.496998388142981e-06 3.859130607100821e-06 -6.496998388142981e-06 -0.00011536861900085693" pbc="T T T"
Si       3.00934899       7.25311350       4.28546926
Si       0.48262497       0.45884135       0.41219800
Si       3.28918531       5.39172905       5.25451844
Si       3.12066815       3.53598448       4.26507617
Si       7.77159484       4.43737377       8.83314503
Si       4.13145876       3.20713887       7.93937338
Si       4.81199067       2.22980629       4.31079629
Si       3.10049124       5.40255368       3.16125688
Si       3.75462108       5.17632087       7.25621339
Si       2.76851102       2.21946361       9.31529313
Si       4.49122079       3.67311883       5.88330188
Si       3.77483823       5.44801975       9.30792602
Si       5.93155513       0.96626504       2.91980657
Si       2.45234873       3.76034173       6.35202622
Si       7.47818217       5.75827461       1.70725362
Si       2.07173823       1.50023003       1.39875059
16
Lattice="5.455168370864727 0.3077618420778987 0.388326804581229 2.1244356945020324 6.63984461329865 -0.32180752595067647 1.103254327969015 0.3453934979155817 9.983392057768755" Properties=species:S:1:pos:R:3 unique_starting_index=92 config_type=initial n_minim_iter=16 stress="4.5630855258584e-05 2.801899892422463e-05 -8.896869562462623e-06 2.801899892422463e-05 -1.528003324756633e-05 4.339634444266699e-05 -8.896869562462623e-06 4.339634444266699e-05 3.565109943682883e-05" pbc="T T T"
Si       3.00884559       7.25304823       4.28574724
Si       0.48304949       0.45862342       0.41230017
Si       3.28858834       5.39178150       5.25466886
Si       3.12019785       3.53596508       4.26496846
Si       7.77149583       4.43760257       8.83336785
Si       4.13119911       3.20783462       7.93954003
Si       4.81149103       2.22987039       4.31080031
Si       3.10039079       5.40294580       3.16126603
Si       3.75389340       5.17676053       7.25618151
Si       2.76860150       2.21954289       9.31556153
Si       4.49061641       3.67330020       5.88341229
Si       3.77515668       5.44831776       9.30822166
Si       5.93173899       0.96645731       2.91995099
Si       2.45194878       3.76065112       6.35241664
Si       7.47832166       5.75861527       1.70700675
Si       2.07194199       1.50043866       1.39866174
16
Lattice="5.455320492092608 0.3076684580364707 0.38852967860698 2.1243823715190344 6.639910522417104 -0.3220455564342628 1.103696404001669 0.3448772027456738 9.983147263024717" Properties=species:S:1:pos:R:3 unique_starting_index=92 config_type=initial n_minim_iter=17 stress="0.00011121575940583731 3.6727685991579706e-05 -4.707805380923246e-05 3.6727685991579706e-05 1.2674569050035863e-05 -1.974244731717473e-05 -4.707805380923246e-05 -1.974244731717473e-05 0.00014758639880307488" pbc="T T T"
Si       3.00859890       7.25259793       4.28556014
Si       0.48355209       0.45865282       0.41228970
Si       3.28839474       5.39128518       5.25451282
Si       3.12033105       3.53567605       4.26464749
Si       7.77215217       4.43702704       8.83364215
Si       4.13168628       3.20790888       7.93921361
Si       4.81157578       2.22958656       4.31085181
Si       3.10043112       5.40281602       3.16108058
Si       3.75378879       5.17662016       7.25566514
Si       2.76923797       2.21906375       9.31514835
Si       4.49048889       3.67273122       5.88311187
Si       3.77605024       5.44769693       9.30779603
Si       5.93225283       0.96640395       2.92008955
Si       2.45196609       3.76025936       6.35207366
Si       7.47876270       5.75864894       1.70690023
Si       2.07241713       1.50044362       1.39878867
16
Lattice="5.455158446711897 0.30750248259086 0.3887924653192875 2.124114884862444 6.639783719040457 -0.3221302166431298 1.1041611200628147 0.34454472686543414 9.983027251980921" Properties=species:S:1:pos:R:3 unique_starting_index=92 config_type=initial n_minim_iter=18 stress="-3.5494734830253624e-06 -1.2601340826082719e-05 -1.1790287676290274e-05 -1.2601340826082719e-05 -3.4562949762463056e-06 -2.261660520767539e-05 -1.1790287676290274e-05 -2.261660520767539e-05 7.445842546741153e-05" pbc="T T T"
Si       3.00799580       7.25214666       4.28570648
Si       0.48413110       0.45871392       0.41214182
Si       3.28796415       5.39092541       5.25443370
Si       3.12025136       3.53546062       4.26425478
Si       7.77235257       4.43638156       8.83394496
Si       4.13207587       3.20791476       7.93923138
Si       4.81164463       2.22907697       4.31093460
Si       3.10016768       5.40244942       3.16109965
Si       3.75336864       5.17651350       7.25533853
Si       2.76979798       2.21861618       9.31495433
Si       4.49015393       3.67216270       5.88299157
Si       3.77669462       5.44705424       9.30763846
Si       5.93229038       0.96629905       2.92032098
Si       2.45172136       3.75974550       6.35236901
Si       7.47869471       5.75860241       1.70705495
Si       2.07294175       1.50045756       1.39896417
16
Lattice="5.455204293888097 0.30741294953685167 0.3889578118084926 2.123995973495683 6.639826294426049 -0.321908682168341 1.1044655772907233 0.34475579149973423 9.98288083574358" Properties=species:S:1:pos:R:3 unique_starting_index=92 config_type=initial n_minim_iter=19 stress="-8.172960947341771e-05 -6.743592213474073e-05 6.266799677434847e-05 -6.743592213474073e-05 -3.650981970318879e-05 5.018044543119546e-05 6.266799677434847e-05 5.018044543119546e-05 -9.519943383260147e-05" pbc="T T T"
Si       3.00782980       7.25234718       4.28586924
Si       0.48440647       0.45851643       0.41216315
Si       3.28784914       5.39090874       5.25458456
Si       3.12038440       3.53541318       4.26422134
Si       7.77255786       4.43651197       8.83429274
Si       4.13243126       3.20825827       7.93944333
Si       4.81160146       2.22914381       4.31083102
Si       3.10010178       5.40253562       3.16123916
Si       3.75336797       5.17671082       7.25542026
Si       2.77033556       2.21879918       9.31497466
Si       4.49011161       3.67235697       5.88297209
Si       3.77700159       5.44733192       9.30775223
Si       5.93258995       0.96627317       2.92044748
Si       2.45162744       3.75975068       6.35253977
Si       7.47879004       5.75869654       1.70736455
Si       2.07308790       1.50048915       1.39897998
16
Lattice="5.455235534295761 0.3075597482454548 0.3890037911698902 2.1241903331013154 6.6399386910996885 -0.322086358218734 1.104591558678785 0.3444791580808706 9.982729441996447" Properties=species:S:1:pos:R:3 unique_starting_index=92 config_type=initial n_minim_iter=20 stress="-2.8306363011880382e-05 9.115095710049557e-06 -4.122975246352028e-06 9.115095710049557e-06 1.778763318218767e-05 -2.4212108593065504e-05 -4.122975246352028e-06 -2.4212108593065504e-05 -3.953423465496857e-06" pbc="T T T"
Si       3.00784356       7.25223504       4.28565094
Si       0.48481748       0.45844926       0.41219319
Si       3.28774022       5.39078028       5.25432391
Si       3.12040192       3.53524452       4.26389541
Si       7.77283537       4.43654528       8.83438496
Si       4.13281355       3.20838476       7.93937564
Si       4.81156874       2.22908374       4.31054191
Si       3.10024591       5.40261906       3.16107710
Si       3.75335587       5.17669632       7.25513583
Si       2.77085475       2.21860109       9.31485638
Si       4.49010085       3.67243939       5.88284688
Si       3.77744408       5.44714231       9.30737194
Si       5.93294596       0.96638607       2.92044731
Si       2.45160484       3.75958505       6.35244479
Si       7.47909037       5.75891653       1.70724774
Si       2.07328481       1.50053763       1.39885924
16
Lattice="5.455416355124241 0.30768572072544087 0.38931793778747487 2.1243803371583634 6.64010817739715 -0.322005984742122 1.105230683987265 0.3444242025881516 9.982489003375532" Properties=species:S:1:pos:R:3 unique_starting_index=92 config_type=initial n_minim_iter=21 stress="-3.79374232319296e-06 -2.986522259755913e-06 3.129936425968088e-05 -2.986522259755913e-06 -1.2470822734413237e-05 3.0152960154934504e-05 3.129936425968088e-05 3.0152960154934504e-05 -6.029418288416131e-05" pbc="T T T"
Si       3.00799561       7.25230904       4.28577615
Si       0.48541678       0.45840998       0.41216854
Si       3.28769715       5.39073447       5.25434278
Si       3.12075856       3.53528488       4.26378765
Si       7.77368774       4.43668841       8.83485340
Si       4.13382255       3.20880445       7.93954451
Si       4.81195449       2.22910521       4.31039084
Si       3.10049489       5.40284500       3.16119124
Si       3.75356434       5.17682084       7.25502058
Si       2.77203718       2.21867483       9.31469191
Si       4.49033091       3.67256396       5.88267694
Si       3.77839442       5.44714206       9.30716389
Si       5.93357706       0.96656620       2.92067511
Si       2.45192402       3.75960994       6.35257880
Si       7.47952924       5.75923615       1.70758792
Si       2.07382904       1.50063349       1.39892723
