6
Lattice="3.3695962573392038 3.3212126547896986e-40 -3.127175799714768e-25 2.1814979706386997e-41 3.3695962573392046 3.3029754504035417e-15 -9.267746579361547e-25 -1.49961894630903e-14 13.488022415592376" Properties=species:S:1:pos:R:3 unique_starting_index=46 config_type=initial n_minim_iter=13 energy=-974.7236030705411 free_energy=-974.7236030705411 pbc="T T T"
Si       2.50754320       0.86205306      10.26114890
Si       0.86205306       2.50754320      10.26114890
Si       2.50754320       2.50754320       3.22687351
Si       0.86205306       0.86205306       3.22687351
Si       1.68479813       1.68479813      12.41991759
Si       1.68479813       1.68479813       1.06810482
