22
Lattice="5.384674867724959 0.2880645194654666 0.7556681349235165 2.8813037968352813 6.775991246361775 1.292205416354219 3.0380310460314517 2.871394382779673 15.355003811231711" Properties=species:S:1:pos:R:3 unique_starting_index=40 config_type=initial n_minim_iter=1 energy=-3591.9713162046746 free_energy=-3591.9713162046746 pbc="T T T"
Si       9.29974621       4.81196248      13.07305793
Si       2.96390247       2.22899887       4.29888405
Si       5.55036277       2.24188523       7.65051628
Si       6.00765637       6.22004244      14.41912275
Si       7.78746470       5.04160692      14.57843457
Si       6.58414531       7.95586458       8.85002115
Si       5.53105960       3.97615548       2.39590382
Si       5.97786285       6.70120475      10.45158873
Si       4.30904501       3.67832441       0.67508990
Si       6.08247590       8.13158294      15.36507538
Si       5.51494610       4.64677073      10.88741317
Si       5.33122599       6.12695002      12.39409153
Si       2.19359043       3.60289530       1.05460752
Si       1.67870479       1.24535917       8.22316495
Si       4.81663516       1.78112340      15.38941125
Si       7.90839018       7.65030618      10.48652557
Si       4.63815777       3.59781934       4.28837430
Si       5.07428168       8.69422434       7.54495982
Si       4.77516980       5.65794154       3.46284494
Si       5.58101885       2.88564085       9.70137152
Si       9.33885380       3.62978949      14.96543922
Si       4.25507929       2.44128444       5.97184758
22
Lattice="5.384705954041166 0.28806438341404367 0.7556686085740283 2.8813029647719235 6.7761923870191145 1.2922527892598963 3.0380491283855013 2.871592296797791 15.354933600302358" Properties=species:S:1:pos:R:3 unique_starting_index=40 config_type=initial n_minim_iter=2 stress="5.867026687563221e-05 -8.348978452310356e-06 2.3632558398617452e-05 -8.348978452310356e-06 0.0001586364303042985 3.4025552691883776e-05 2.3632558398617452e-05 3.4025552691883776e-05 2.2981226942730456e-05" pbc="T T T"
Si       9.29978357       4.81218053      13.07303930
Si       2.96393470       2.22909463       4.29887747
Si       5.55045908       2.24200021       7.65050771
Si       6.00765355       6.22035934      14.41909294
Si       7.78752627       5.04183148      14.57840235
Si       6.58421058       7.95614099       8.85008960
Si       5.53112417       3.97626673       2.39592647
Si       5.97788275       6.70150676      10.45155452
Si       4.30907859       3.67839905       0.67509982
Si       6.08248515       8.13189367      15.36504049
Si       5.51497227       4.64697079      10.88737985
Si       5.33126141       6.12721302      12.39406826
Si       2.19354721       3.60302235       1.05460896
Si       1.67870061       1.24546691       8.22311755
Si       4.81667794       1.78132012      15.38935551
Si       7.90837138       7.65059190      10.48648528
Si       4.63817039       3.59792196       4.28839448
Si       5.07421080       8.69452176       7.54501084
Si       4.77520028       5.65813688       3.46285006
Si       5.58105359       2.88579136       9.70133770
Si       9.33890394       3.62995930      14.96538931
Si       4.25509974       2.44139111       5.97179048
22
Lattice="5.384662255280245 0.28806030525216947 0.7556450878643146 2.881280895661122 6.7760701841056274 1.2922132225874914 3.0379740757499487 2.8714911287974285 15.354837854781925" Properties=species:S:1:pos:R:3 unique_starting_index=40 config_type=initial n_minim_iter=3 stress="-8.53846452884088e-05 -1.2780203918132207e-07 1.5103208249893691e-06 -1.2780203918132207e-07 1.891523909587937e-05 1.7493776610098502e-05 1.5103208249893691e-06 1.7493776610098502e-05 -9.705302168695426e-05" pbc="T T T"
Si       9.29966757       4.81205729      13.07293163
Si       2.96390325       2.22904361       4.29883848
Si       5.55040618       2.24193951       7.65044701
Si       6.00755431       6.22021428      14.41898254
Si       7.78742425       5.04169336      14.57829115
Si       6.58414506       7.95597399       8.85000968
Si       5.53108556       3.97619002       2.39588319
Si       5.97780235       6.70136603      10.45145274
Si       4.30905084       3.67832914       0.67506414
Si       6.08238872       8.13169190      15.36491495
Si       5.51489538       4.64685298      10.88728844
Si       5.33118519       6.12706482      12.39396735
Si       2.19351721       3.60296242       1.05457639
Si       1.67865563       1.24542063       8.22306661
Si       4.81659078       1.78124735      15.38926177
Si       7.90826727       7.65042695      10.48636987
Si       4.63812054       3.59783973       4.28834892
Si       5.07413213       8.69434462       7.54493298
Si       4.77516069       5.65803187       3.46279085
Si       5.58098048       2.88571267       9.70126159
Si       9.33878091       3.62984027      14.96527335
Si       4.25504812       2.44132939       5.97172778
