8
Lattice="6.620475165225092 -0.016659963965042306 -0.023847280210327327 -3.245588033519967 5.770366304181524 0.023847280210327327 -3.2455883973286235 -1.9629095952813829 5.4262951943672455" Properties=species:S:1:pos:R:3 unique_starting_index=16 config_type=initial n_minim_iter=1 energy=-1301.7255410821977 free_energy=-1301.7255410821977 pbc="T T T"
Si      -1.74815233       1.02545459       3.31622127
Si       3.35753563       1.89730641       0.86753442
Si       1.87745537       1.02995522       3.32266390
Si      -3.22823243       3.62911390       3.34651118
Si       1.87745545       2.76546047       2.11024411
Si      -3.22823251       1.89360866       4.55893096
Si       3.35753555       0.16180116       2.07995421
Si      -1.74815225       2.76095984       2.10380149
8
Lattice="6.626328012208237 -0.022293923098932016 -0.03191194995849483 -3.2533618922713154 5.772725209318342 0.031911949958494855 -3.25336225587289 -1.956148849896312 5.431284749121874" Properties=species:S:1:pos:R:3 unique_starting_index=16 config_type=initial n_minim_iter=2 stress="0.006300548983491179 -0.0028109474485262954 -0.004023700137471398 -0.0028109474485262954 0.003157066211770807 0.002360136755829904 -0.004023700137471398 0.002360136755829904 0.004886672304371952" pbc="T T T"
Si      -1.75378682       1.02875952       3.32144864
Si       3.35734703       1.89521608       0.86404567
Si       1.87339468       1.02966984       3.32275196
Si      -3.23773900       3.63515629       3.35466391
Si       1.87339476       2.76564135       2.11000645
Si      -3.23773908       1.89918479       4.56740943
Si       3.35734694       0.15924457       2.07679118
Si      -1.75378674       2.76473102       2.10870313
8
Lattice="6.606909354179026 -0.03057276276600476 -0.04376260717071863 -3.251110793488403 5.751735782928894 0.043762607170718656 -3.2511111552393372 -1.9378002282293394 5.415653940725947" Properties=species:S:1:pos:R:3 unique_starting_index=16 config_type=initial n_minim_iter=3 stress="0.00046046230948757735 0.0006990949823822613 0.0010007119052309376 0.0006990949823822613 0.0012422602879844826 -0.0005869763821459813 0.0010007119052309376 -0.0005869763821459813 0.000812099652477054" pbc="T T T"
Si      -1.75092836       1.02708255       3.32227384
Si       3.33814328       1.88681087       0.84878846
Si       1.85561929       1.01739808       3.30841134
Si      -3.23345218       3.63567026       3.35217395
Si       1.85561937       2.75639833       2.09354996
Si      -3.23345226       1.89667001       4.56703534
Si       3.33814319       0.14781062       2.06364985
Si      -1.75092827       2.76608280       2.10741245
8
Lattice="6.605871254878327 -0.03198525534707406 -0.045784504537724986 -3.251837015785068 5.7501403561441435 0.04578450453772499 -3.2518373773458102 -1.9353528573869956 5.4148515494096285" Properties=species:S:1:pos:R:3 unique_starting_index=16 config_type=initial n_minim_iter=4 stress="-0.0010675492197142183 -0.00025108309755072616 -0.00035941016779258186 -0.00025108309755072616 -0.0013483354691437419 0.00021081519955264987 -0.00035941016779258186 0.00021081519955264987 -0.0011938413481326238" pbc="T T T"
Si      -1.75201814       1.02772174       3.32232982
Si       3.33671936       1.88562465       0.84794943
Si       1.85421845       1.01700486       3.30698950
Si      -3.23451889       3.63548938       3.35277401
Si       1.85421853       2.75519857       2.09269156
Si      -3.23451897       1.89729566       4.56707195
Si       3.33671928       0.14743094       2.06224737
Si      -1.75201805       2.76591546       2.10803188
8
Lattice="6.618998251687877 -0.044594267625230104 -0.0638335385201651 -3.2692489202972577 5.755444205418682 0.06383353852016511 -3.269249281396093 -1.9202304950259166 5.426041393802288" Properties=species:S:1:pos:R:3 unique_starting_index=16 config_type=initial n_minim_iter=5 stress="-0.0002888894026515807 0.00010300820375862376 0.00014744997237255738 0.00010300820375862376 -0.00017369531959088807 -8.648808001434337e-05 0.00014744997237255738 -8.648808001434337e-05 -0.0002370773713992478" pbc="T T T"
Si      -1.76990723       1.03821467       3.33753885
Si       3.33180234       1.88359944       0.84486143
Si       1.85041006       1.01415188       3.30309466
Si      -3.25129935       3.64550952       3.36692820
Si       1.85041014       2.75252309       2.08867273
Si      -3.25129944       1.90713832       4.58135014
Si       3.33180226       0.14522824       2.05928337
Si      -1.76990715       2.77658588       2.12311691
8
Lattice="6.619565515459405 -0.045349442380704895 -0.06491452525484827 -3.2701849000769565 5.755570771408539 0.06491452525484818 -3.2701852611360454 -1.9192590466715629 5.426532147752429" Properties=species:S:1:pos:R:3 unique_starting_index=16 config_type=initial n_minim_iter=6 stress="6.853602924467322e-06 7.314143753629848e-07 1.0469751489669387e-06 7.314143753629848e-07 7.671543683122408e-06 -6.141124951863083e-07 1.0469751489669387e-06 -6.141124951863083e-07 7.221496577906187e-06" pbc="T T T"
Si      -1.77077747       1.03872511       3.33833698
Si       3.33144407       1.88338714       0.84449006
Si       1.84997555       1.01392094       3.30283156
Si      -3.25224582       3.64612803       3.36774609
Si       1.84997564       2.75235550       2.08836536
Si      -3.25224591       1.90769347       4.58221228
Si       3.33144399       0.14495258       2.05895626
Si      -1.77077739       2.77715967       2.12387078
