24
Lattice="6.9338198773101904 -1.8296563600979616 -0.06435323429801643 0.6550495352208789 8.050525756229028 -0.04159656998374912 1.5538332162444444 2.5715922489813674 9.495462790519067" Properties=species:S:1:pos:R:3 unique_starting_index=94 config_type=initial n_minim_iter=1 energy=-3919.7174148203935 free_energy=-3919.7174148203935 pbc="T T T"
Si       7.61101243       5.54895697       7.38760134
Si      -0.26028382       3.04033449       3.70195429
Si       2.74840442       6.74880351       0.88718423
Si       5.75358477       9.00245097       7.09479443
Si       5.18609723       1.64268476       1.47365136
Si       5.21438711       4.17647304       9.47244848
Si       4.66334827       0.60349152       3.25271121
Si       3.60769114       0.08953671       1.47084666
Si       6.70293649       0.68485519       5.71042427
Si       7.48680777       6.61485154       5.54916269
Si       4.13682198       5.95156562       8.92431142
Si       4.89972608       1.62335903       5.11436216
Si       1.42141765       6.09879696       2.36886522
Si       2.20361908       5.56742330       7.58222661
Si       6.63077247       2.88674576       4.94544701
Si       5.55098234       4.93952275       7.51601653
Si       4.57611138       2.23391886       8.76636652
Si       1.68613649       4.89197156       0.64783072
Si       6.98630729       2.65271889       2.08847629
Si       3.64653689       4.07211473       8.05518878
Si       6.53685275       4.34651860       3.39333767
Si       1.78455503       0.79194607       0.55633021
Si       4.68853936       8.09444081       8.69574910
Si       5.23669056       2.67443413       3.31300928
24
Lattice="6.94757894480338 -1.827964115847134 -0.07553041345747875 0.6564165767421688 8.042866938515923 -0.03552748567511867 1.543826046155922 2.5774116607158764 9.501150025259664" Properties=species:S:1:pos:R:3 unique_starting_index=94 config_type=initial n_minim_iter=2 stress="0.0045588369139533125 0.001705624310198871 -0.0031613571241581573 0.001705624310198871 0.0017964356399618605 0.003071317201122307 -0.0031613571241581573 0.003071317201122307 0.003743531576804657" pbc="T T T"
Si       7.61608755       5.54992740       7.38692493
Si      -0.26508764       3.04069535       3.70734687
Si       2.75242310       6.74313128       0.88976335
Si       5.75530997       8.99992920       7.09830134
Si       5.19420830       1.64159625       1.46913838
Si       5.21160572       4.18052077       9.47507520
Si       4.66659158       0.60552419       3.24721337
Si       3.61366297       0.09163823       1.46731464
Si       6.70879373       0.68912124       5.70442843
Si       7.49412001       6.61311453       5.54748222
Si       4.13291794       5.95336844       8.92869668
Si       4.90214648       1.62633628       5.11334243
Si       1.42107300       6.09531317       2.37388790
Si       2.19805673       5.56835485       7.58874678
Si       6.63590864       2.88772848       4.94057370
Si       5.55176012       4.94087457       7.51675876
Si       4.57296928       2.23930006       8.76705125
Si       1.68863380       4.88836093       0.65043167
Si       6.99737145       2.65159539       2.08308123
Si       3.64253933       4.07639434       8.05796835
Si       6.54485121       4.34559131       3.38997698
Si       1.78683772       0.79187248       0.55563771
Si       4.68526342       8.09431532       8.70167268
Si       5.24312490       2.67611780       3.30979327
24
Lattice="6.948256558275857 -1.8293856362813874 -0.07467909477516482 0.6520995275943189 8.032635945269346 -0.038307624307436026 1.5426090136627562 2.5700884188274125 9.493059363428028" Properties=species:S:1:pos:R:3 unique_starting_index=94 config_type=initial n_minim_iter=3 stress="-0.0023554876120154334 -0.0017679302526783668 -0.0024687687929757667 -0.0017679302526783668 -0.013272330338298987 0.0013363914105993001 -0.0024687687929757667 0.0013363914105993001 -0.011183077975902081" pbc="T T T"
Si       7.61319060       5.53616903       7.38035224
Si      -0.26583249       3.03570864       3.70372616
Si       2.74863870       6.73289977       0.88656782
Si       5.75052452       8.98311345       7.08941847
Si       5.19316323       1.63538535       1.46792412
Si       5.20915833       4.16904933       9.46702381
Si       4.66456339       0.60100455       3.24313847
Si       3.61439290       0.08990452       1.46684929
Si       6.70878202       0.68274305       5.69918598
Si       7.49065447       6.59856105       5.54059225
Si       4.12998554       5.94061089       8.91960934
Si       4.90102963       1.61996409       5.11045868
Si       1.41779079       6.08635479       2.37022198
Si       2.19569736       5.55732595       7.58133951
Si       6.63278237       2.87808265       4.93463235
Si       5.54923559       4.92851515       7.50917189
Si       4.57160717       2.23074590       8.75957038
Si       1.68618238       4.88181988       0.64858786
Si       6.99568517       2.64345046       2.08167768
Si       3.64042826       4.06780158       8.04994719
Si       6.54225091       4.33597492       3.38565992
Si       1.78605521       0.79009813       0.55569321
Si       4.68019534       8.07894805       8.69275055
Si       5.24250533       2.67040916       3.30592250
24
Lattice="6.949882005888917 -1.833920858214787 -0.0684399171867795 0.6485626714257139 8.038981194185824 -0.04495605428619479 1.5480830554197071 2.563184186936468 9.50054274455596" Properties=species:S:1:pos:R:3 unique_starting_index=94 config_type=initial n_minim_iter=4 stress="0.002015805819901924 -0.0028860749429798073 -0.0012700889139153693 -0.0028860749429798073 -0.003662931831098297 -0.006244085594774255 -0.0012700889139153693 -0.006244085594774255 0.00048517296325586556" pbc="T T T"
Si       7.61698296       5.53037700       7.38874265
Si      -0.26359888       3.03470176       3.70454050
Si       2.74644877       6.73622020       0.88308828
Si       5.75217389       8.98134831       7.09129359
Si       5.19426814       1.63183644       1.47174844
Si       5.21394585       4.16161342       9.47618953
Si       4.66468703       0.59632924       3.24685908
Si       3.61704326       0.08812258       1.47145587
Si       6.71392476       0.67547456       5.70716696
Si       7.49280221       6.59488553       5.54408959
Si       4.13424516       5.93599874       8.92501722
Si       4.90410735       1.61463096       5.11924634
Si       1.41679298       6.08893147       2.36847698
Si       2.19934350       5.55383117       7.58527349
Si       6.63343839       2.87194512       4.93919384
Si       5.55308131       4.92237916       7.51507367
Si       4.57679554       2.22237300       8.76849751
Si       1.68497115       4.88534849       0.64649757
Si       6.99667791       2.64002565       2.08748103
Si       3.64461348       4.06395621       8.05527109
Si       6.54342453       4.33448670       3.38870412
Si       1.78589999       0.79009758       0.55778668
Si       4.68186821       8.07608031       8.69736937
Si       5.24563626       2.66969415       3.30923154
24
Lattice="6.9451051730625775 -1.8333223984256701 -0.06555727976728075 0.650320640477065 8.044547863494076 -0.03819022723371579 1.5537415770747305 2.5728293902409756 9.502084127233914" Properties=species:S:1:pos:R:3 unique_starting_index=94 config_type=initial n_minim_iter=5 stress="-0.00037284965209259294 -0.00215221387502394 0.0014583616761655628 -0.00215221387502394 -0.00024680782399237627 0.0006584356282074577 0.0014583616761655628 0.0006584356282074577 -0.0032947810828488" pbc="T T T"
Si       7.61862604       5.54175041       7.39750503
Si      -0.25981585       3.03913675       3.70618684
Si       2.74715953       6.74233196       0.88994413
Si       5.75557681       8.99427391       7.10061229
Si       5.19261125       1.63481876       1.47612458
Si       5.21751799       4.17329823       9.48152767
Si       4.66285716       0.60062770       3.24910616
Si       3.61624293       0.09083625       1.47378095
Si       6.71389016       0.68239729       5.71028012
Si       7.49373556       6.60517158       5.55264357
Si       4.13919598       5.94848853       8.93086916
Si       4.90470396       1.62111205       5.12372995
Si       1.41901212       6.09552890       2.37415920
Si       2.20462973       5.56393540       7.59010262
Si       6.63193777       2.87910257       4.94376653
Si       5.55585535       4.93238901       7.52119517
Si       4.57977567       2.23179145       8.77167320
Si       1.68584480       4.88998576       0.65152574
Si       6.99441769       2.64494970       2.09446440
Si       3.64859806       4.07456856       8.05904844
Si       6.54281984       4.34244723       3.39531529
Si       1.78526739       0.79192300       0.55993570
Si       4.68597007       8.08977676       8.70550141
Si       5.24587729       2.67657928       3.31382381
24
Lattice="6.935000944210794 -1.823488027501249 -0.06643888764908402 0.6598066331093978 8.040855194686179 -0.03911137181858759 1.5538609859857118 2.5724141817931905 9.507821490250826" Properties=species:S:1:pos:R:3 unique_starting_index=94 config_type=initial n_minim_iter=6 stress="-0.005824667939442714 0.0033301500255644174 -0.0007874141921865487 0.0033301500255644174 -0.00383324389502641 -0.0011385306408823945 -0.0007874141921865487 -0.0011385306408823945 -0.000181245863197329" pbc="T T T"
Si       7.61640911       5.54711672       7.40209485
Si      -0.25584359       3.03536797       3.70796683
Si       2.75276277       6.74265432       0.88968915
Si       5.75954740       8.99518771       7.10351166
Si       5.18913549       1.63956059       1.47533016
Si       5.21512954       4.17689627       9.48671975
Si       4.65633116       0.60649349       3.25123394
Si       3.61211470       0.09554609       1.47404811
Si       6.70695759       0.68989095       5.71180021
Si       7.49339640       6.60949601       5.55372528
Si       4.14138007       5.95013790       8.93557513
Si       4.90044875       1.62600719       5.12664839
Si       1.42471557       6.09394516       2.37541886
Si       2.20858511       5.56271525       7.59455321
Si       6.62510257       2.88481625       4.94378787
Si       5.55513539       4.93441243       7.52477693
Si       4.57560087       2.23532035       8.77616700
Si       1.69026119       4.88980496       0.65177860
Si       6.99020602       2.65163222       2.09570892
Si       3.64909095       4.07656920       8.06303300
Si       6.54077002       4.34931867       3.39551473
Si       1.78416564       0.79419177       0.56066259
Si       4.68863561       8.09060935       8.70972684
Si       5.24327807       2.68236130       3.31522605
24
Lattice="6.94116224207845 -1.8205877458918351 -0.06337765562889634 0.662361431058273 8.035598894515157 -0.037956472722272615 1.5604233710992748 2.572060472915164 9.508594976014416" Properties=species:S:1:pos:R:3 unique_starting_index=94 config_type=initial n_minim_iter=7 stress="-0.001654600020056562 0.001281521729772444 0.0004959669832137275 0.001281521729772444 -0.0009166826517077824 0.003557503739749017 0.0004959669832137275 0.003557503739749017 0.005189397658579678" pbc="T T T"
Si       7.63012654       5.54431169       7.41182008
Si      -0.25256420       3.02718781       3.70600611
Si       2.75885999       6.74220848       0.89285039
Si       5.77069679       8.98844444       7.10744644
Si       5.19731878       1.63658258       1.47462746
Si       5.22418223       4.17722352       9.48966593
Si       4.65671302       0.61142883       3.25740770
Si       3.61579311       0.09724545       1.47460157
Si       6.71949682       0.69069961       5.71041596
Si       7.50687102       6.60355571       5.55470098
Si       4.15322122       5.95106856       8.93799699
Si       4.90671921       1.62770252       5.12883379
Si       1.42836592       6.09130275       2.37858327
Si       2.21615652       5.56128379       7.59706536
Si       6.62505193       2.88320828       4.93912304
Si       5.56680834       4.92665868       7.52791851
Si       4.58225195       2.23518473       8.77678008
Si       1.69400314       4.88918379       0.65574184
Si       7.00183627       2.65001917       2.10363587
Si       3.66128306       4.07582604       8.06460756
Si       6.55070906       4.35429988       3.39654249
Si       1.78607658       0.79663894       0.56417654
Si       4.69494367       8.08874672       8.71217302
Si       5.25070291       2.68491284       3.32014370
24
Lattice="6.945026649302563 -1.8162446796229592 -0.06559021225793023 0.6693044295733912 8.041544006522658 -0.04298171608975536 1.5590101189388181 2.5693995145757236 9.491585927416724" Properties=species:S:1:pos:R:3 unique_starting_index=94 config_type=initial n_minim_iter=8 stress="0.0022069708763796008 0.0046703186554161655 -0.0014027948745574232 0.0046703186554161655 0.0026933183617195255 -0.00013266774123886252 -0.0014027948745574232 -0.00013266774123886252 -0.005390785693363983" pbc="T T T"
Si       7.63740797       5.54907547       7.39576323
Si      -0.25204818       3.02340190       3.69699966
Si       2.76640492       6.74977239       0.88698293
Si       5.77896925       8.99346003       7.08820053
Si       5.20272781       1.64013529       1.46948622
Si       5.22651823       4.17896557       9.47031668
Si       4.65688576       0.61590111       3.25091393
Si       3.61781245       0.09955057       1.47028998
Si       6.72344067       0.69264091       5.69622271
Si       7.51613786       6.60880209       5.53733615
Si       4.15772638       5.95446794       8.91857134
Si       4.90871557       1.62971343       5.11767695
Si       1.43318354       6.09578655       2.37169868
Si       2.21885619       5.56273515       7.58144063
Si       6.62638137       2.88733373       4.92335902
Si       5.57231518       4.92698531       7.51049577
Si       4.58207799       2.23516143       8.75898315
Si       1.69904437       4.89419336       0.65207724
Si       7.00971221       2.65538831       2.09728790
Si       3.66504352       4.07668678       8.04795589
Si       6.55780706       4.36325325       3.38450374
Si       1.78773552       0.79953658       0.56287662
Si       4.69888892       8.09351397       8.69114671
Si       5.25484058       2.68898436       3.30984218
24
Lattice="6.940347054120409 -1.8189413400559056 -0.0692412114390235 0.663251413783371 8.032060946637445 -0.0429311901197826 1.5511439920267438 2.5659528810383727 9.501496792196676" Properties=species:S:1:pos:R:3 unique_starting_index=94 config_type=initial n_minim_iter=9 stress="-0.00317760706052829 -0.0015125659350679872 -0.0032414182870844402 -0.0015125659350679872 -0.000293403550867818 0.0006865488543839104 -0.0032414182870844402 0.0006865488543839104 -0.0011250233472018434" pbc="T T T"
Si       7.62449034       5.53687575       7.40523749
Si      -0.25632982       3.01262814       3.69646953
Si       2.75976186       6.74325211       0.88937074
Si       5.76478228       8.97645412       7.09326053
Si       5.19805771       1.63323430       1.47153532
Si       5.21376834       4.17166789       9.47992677
Si       4.64696964       0.61789669       3.25397690
Si       3.61365167       0.09725778       1.46975921
Si       6.71596691       0.68593352       5.69681575
Si       7.50451155       6.59277919       5.53799876
Si       4.14751069       5.94800572       8.92632963
Si       4.89992140       1.62460186       5.12132081
Si       1.42660030       6.08967026       2.37670509
Si       2.21002671       5.55632929       7.59019265
Si       6.60992667       2.88042882       4.91990352
Si       5.56301633       4.91200394       7.51549743
Si       4.56968439       2.23055390       8.76551497
Si       1.69429979       4.88902025       0.65405727
Si       7.00394049       2.64661453       2.10031947
Si       3.65843462       4.07024236       8.05571974
Si       6.54725785       4.35937772       3.38320700
Si       1.78562286       0.80037791       0.56419917
Si       4.68126897       8.08323254       8.69729484
Si       5.24568002       2.68228053       3.30737701
24
Lattice="6.946345148804845 -1.8116396926882317 -0.06099644257181181 0.6696119201698001 8.022068252198217 -0.042657585817173015 1.5658024374836472 2.5631493448293554 9.507459721852287" Properties=species:S:1:pos:R:3 unique_starting_index=94 config_type=initial n_minim_iter=10 stress="0.0014099849126476243 0.0010481492367370529 0.0012174233776794966 0.0010481492367370529 -0.004155317594125668 0.0007373531083822862 0.0012174233776794966 0.0007373531083822862 0.00022612099662227736" pbc="T T T"
Si       7.64559886       5.53444385       7.41864626
Si      -0.25072681       3.00545699       3.69589551
Si       2.76856735       6.73676063       0.89317578
Si       5.78585100       8.96723362       7.10253242
Si       5.20693945       1.63384977       1.47878350
Si       5.23376279       4.16976025       9.49069589
Si       4.65481071       0.62220836       3.26124984
Si       3.61957236       0.09964300       1.47496699
Si       6.73050267       0.68855334       5.70658839
Si       7.52448851       6.58781120       5.54852750
Si       4.16724016       5.94339917       8.93460185
Si       4.91189723       1.62542450       5.12925477
Si       1.43546914       6.08335916       2.38016869
Si       2.22559312       5.55053625       7.59634922
Si       6.62372933       2.88158019       4.92791291
Si       5.58246675       4.90682987       7.52480368
Si       4.58538587       2.23055507       8.77444901
Si       1.70052702       4.88426135       0.65662380
Si       7.01687941       2.64780485       2.11075367
Si       3.67569040       4.06735310       8.06387883
Si       6.56050539       4.35967221       3.39152706
Si       1.78884575       0.80173013       0.56667239
Si       4.70083740       8.07658347       8.70577835
Si       5.25627520       2.68262333       3.31375196
24
Lattice="6.942704061443988 -1.8032148970592525 -0.05350203680504383 0.6774586671974793 8.016328021581536 -0.04602369590042053 1.5769998196452022 2.5579478397428272 9.507261598432667" Properties=species:S:1:pos:R:3 unique_starting_index=94 config_type=initial n_minim_iter=11 stress="1.823018323324134e-05 0.0015551083341756988 -0.0014217829604458454 0.0015551083341756988 0.0008926393875919689 -0.000649341416627343 -0.0014217829604458454 -0.000649341416627343 0.0012626398745468484" pbc="T T T"
Si       7.65762437       5.53403959       7.42889838
Si      -0.25021426       2.98490287       3.68625195
Si       2.77501962       6.73332895       0.89527351
Si       5.80172968       8.95591028       7.10120232
Si       5.20927513       1.63169847       1.47961145
Si       5.25195920       4.16967046       9.49838553
Si       4.64920843       0.63363266       3.26620102
Si       3.62329973       0.10176343       1.48325719
Si       6.73305031       0.68713030       5.70865382
Si       7.53908195       6.57867021       5.55190348
Si       4.18324789       5.94173000       8.93255729
Si       4.91625429       1.62464340       5.13178674
Si       1.44547658       6.08335017       2.38483834
Si       2.23971154       5.54666120       7.59806989
Si       6.62844129       2.88653493       4.92279553
Si       5.60112010       4.89193033       7.52548198
Si       4.58935758       2.22932729       8.77599689
Si       1.70598796       4.88419156       0.65889722
Si       7.02629964       2.65214183       2.12247368
Si       3.69112099       4.06576391       8.06874855
Si       6.55809381       4.36688485       3.39216154
Si       1.79032969       0.81056764       0.56769509
Si       4.70852694       8.07841898       8.70316341
Si       5.25629360       2.68909305       3.31448015
24
Lattice="6.9522712010520324 -1.7956009541944018 -0.036700736416650184 0.6818249573367808 7.996298416335665 -0.04512169046071092 1.6032748153529317 2.5513418289368155 9.511783496465325" Properties=species:S:1:pos:R:3 unique_starting_index=94 config_type=initial n_minim_iter=12 stress="0.004223553161247857 -0.002356034847058367 0.0008054290122815891 -0.002356034847058367 0.002509702496651888 -0.00151050525581193 0.0008054290122815891 -0.00151050525581193 0.0025927046926674927" pbc="T T T"
Si       7.69175327       5.52520420       7.45402837
Si      -0.25372074       2.95824235       3.68126278
Si       2.78416519       6.72373855       0.91092601
Si       5.83495945       8.92747236       7.10959682
Si       5.23222624       1.62888915       1.49161172
Si       5.28992842       4.16344670       9.51404320
Si       4.64814663       0.64005855       3.28032820
Si       3.63131980       0.09794471       1.49682662
Si       6.75032188       0.67911554       5.71580140
Si       7.57431252       6.54993367       5.57342672
Si       4.21958378       5.93363487       8.93932396
Si       4.94027783       1.62335323       5.14137091
Si       1.45999968       6.07594377       2.39885559
Si       2.26749762       5.53648501       7.60868679
Si       6.65600525       2.87743206       4.92045095
Si       5.64438190       4.85885720       7.53797816
Si       4.61397004       2.22124911       8.78486483
Si       1.71024894       4.87659987       0.66974717
Si       7.05006573       2.64929454       2.15123308
Si       3.72304866       4.05953110       8.08132185
Si       6.55883115       4.36765801       3.40090101
Si       1.79781537       0.82186352       0.57618530
Si       4.72774806       8.07187673       8.70587977
Si       5.26654831       2.69160233       3.31983350
24
Lattice="6.944148932576196 -1.7709812174920854 -0.017004019883860255 0.7053607053333014 7.980591000600148 -0.047145054164970765 1.6361646048690344 2.5458367477246107 9.518054676147127" Properties=species:S:1:pos:R:3 unique_starting_index=94 config_type=initial n_minim_iter=13 stress="0.004802616329463443 -0.001670230682798392 0.00341863858297006 -0.001670230682798392 0.006855652100596951 -0.00018346654729787528 0.00341863858297006 -0.00018346654729787528 0.008567500784695868" pbc="T T T"
Si       7.73062241       5.53659868       7.48322743
Si      -0.25849037       2.92977381       3.66802650
Si       2.80334681       6.72350755       0.92633045
Si       5.88563887       8.91388715       7.11291954
Si       5.25173715       1.63551455       1.50547385
Si       5.33416989       4.16084953       9.54195652
Si       4.63449812       0.65889585       3.29055215
Si       3.63284691       0.10552521       1.50778041
Si       6.75907689       0.67540352       5.72775735
Si       7.61720477       6.53417159       5.59937039
Si       4.27027470       5.94124884       8.94851921
Si       4.96017369       1.64036230       5.14936557
Si       1.48598008       6.07426266       2.41730532
Si       2.30788911       5.53490799       7.62175727
Si       6.68532286       2.87650377       4.90773039
Si       5.69956495       4.82895521       7.54820542
Si       4.63879941       2.22133974       8.79690401
Si       1.72396746       4.87837492       0.68342529
Si       7.07075087       2.66587342       2.19009680
Si       3.76549413       4.05803804       8.09435917
Si       6.55389270       4.39499504       3.40399334
Si       1.80908035       0.84106300       0.58998256
Si       4.75072810       8.08335580       8.71131546
Si       5.27002192       2.70452281       3.32948298
24
Lattice="6.9295819978458 -1.756771107432742 -0.01496105518551601 0.7209151782719748 7.9822413568647885 -0.04620468292945584 1.6421032428759796 2.550010782508618 9.521682774220755" Properties=species:S:1:pos:R:3 unique_starting_index=94 config_type=initial n_minim_iter=14 stress="0.0005168558022750211 -0.0008956362703136549 0.002138646461804853 -0.0008956362703136549 0.008471986451334526 -0.0006432230619303484 0.002138646461804853 -0.0006432230619303484 0.008427470248264875" pbc="T T T"
Si       7.73710115       5.55553779       7.49378463
Si      -0.26593829       2.91921594       3.65995989
Si       2.81004817       6.73293110       0.93259452
Si       5.89988423       8.92431308       7.11353974
Si       5.25274627       1.64121143       1.50957144
Si       5.34210642       4.17603113       9.54410694
Si       4.61849983       0.67343303       3.28901975
Si       3.62672116       0.10910754       1.50935118
Si       6.75114647       0.67677246       5.72608655
Si       7.62661988       6.53811273       5.60772378
Si       4.28642637       5.95171113       8.95204907
Si       4.95750577       1.65789960       5.15019798
Si       1.49442749       6.08103341       2.42970761
Si       2.32039022       5.54576004       7.62940885
Si       6.69086014       2.88501998       4.89171908
Si       5.71385526       4.82179382       7.55392324
Si       4.63847129       2.22872233       8.80211311
Si       1.73098401       4.88765691       0.69130242
Si       7.07089235       2.68414119       2.20689923
Si       3.78051223       4.07096806       8.10122832
Si       6.54122540       4.41924699       3.39869789
Si       1.81199805       0.85084188       0.59825059
Si       4.74796823       8.10609927       8.71378533
Si       5.26283485       2.71878594       3.33046823
24
Lattice="6.928947779657239 -1.7464824034670399 -0.015349997157105232 0.733196181637937 7.983715541377871 -0.04578817563401456 1.645982429963034 2.5529995258227896 9.516236478442679" Properties=species:S:1:pos:R:3 unique_starting_index=94 config_type=initial n_minim_iter=15 stress="-0.0012512601043083561 -0.0023687641440535826 0.0004379901676007451 -0.0023687641440535826 0.005152458839275392 -0.0006656475668263577 0.0004379901676007451 -0.0006656475668263577 0.00435393386826237" pbc="T T T"
Si       7.75414951       5.56843809       7.49674512
Si      -0.27486082       2.90595258       3.65117637
Si       2.81420138       6.74118160       0.93561339
Si       5.91260536       8.93481126       7.11148182
Si       5.25786888       1.64378931       1.50818611
Si       5.35641298       4.18381298       9.54089481
Si       4.60954845       0.68394349       3.28866853
Si       3.62629276       0.11188086       1.49896710
Si       6.75501677       0.67587498       5.70738876
Si       7.64312654       6.53674715       5.60601484
Si       4.30302894       5.96079035       8.95005299
Si       4.96253898       1.67280333       5.14865894
Si       1.49664812       6.08447818       2.43864166
Si       2.33142241       5.55597548       7.62949350
Si       6.70941639       2.89322484       4.86661096
Si       5.73405557       4.81367405       7.54835034
Si       4.64420455       2.23309953       8.80219894
Si       1.74081626       4.89578904       0.69666191
Si       7.08011609       2.70152052       2.22134894
Si       3.79695345       4.08388221       8.09998315
Si       6.53710575       4.43493985       3.38796339
Si       1.81969235       0.85512536       0.60505150
Si       4.74396413       8.12623183       8.70549098
Si       5.26291096       2.73351188       3.32124393
24
Lattice="6.93689884319918 -1.7410969806444718 -0.017440042439805233 0.7397115957572121 7.981938394905881 -0.049245485235731266 1.645921173119782 2.549575033364756 9.508204395346695" Properties=species:S:1:pos:R:3 unique_starting_index=94 config_type=initial n_minim_iter=16 stress="0.00014642447662325668 -0.0005142977712640403 -0.001653886034095898 -0.0005142977712640403 0.0010988769369304511 -0.0022460259875286648 -0.001653886034095898 -0.0022460259875286648 -0.0015673227883972376" pbc="T T T"
Si       7.77182131       5.56698591       7.49485711
Si      -0.28183975       2.89861436       3.63721958
Si       2.81225422       6.74201746       0.93496360
Si       5.91906551       8.93873525       7.10415258
Si       5.26276232       1.63893979       1.50601138
Si       5.36444874       4.18379793       9.52767182
Si       4.60243171       0.68855015       3.28534378
Si       3.63553709       0.10485030       1.49428119
Si       6.76074014       0.66968218       5.68673195
Si       7.65715573       6.52815759       5.59424968
Si       4.31451521       5.96450686       8.94980246
Si       4.97814082       1.68342603       5.14382189
Si       1.49622756       6.08328601       2.43798724
Si       2.33938910       5.55704486       7.62518970
Si       6.72857278       2.89273744       4.83753609
Si       5.75389630       4.80502709       7.53508795
Si       4.65252371       2.23352072       8.80219671
Si       1.75065269       4.89811075       0.69762974
Si       7.09097486       2.70616091       2.22854111
Si       3.80539372       4.08603728       8.09600427
Si       6.53627063       4.43734056       3.37580402
Si       1.82893321       0.85730772       0.60489207
Si       4.73646773       8.13212364       8.68892963
Si       5.26286792       2.73684659       3.31610517
24
Lattice="6.941618185090488 -1.743130466443337 -0.012119472496662504 0.7393914453340868 7.9880266716272015 -0.047050957522907756 1.654445680510574 2.553322740285484 9.502382391084996" Properties=species:S:1:pos:R:3 unique_starting_index=94 config_type=initial n_minim_iter=17 stress="0.00209842165791246 0.00046965399776150135 -0.0008240422448291329 0.00046965399776150135 -4.785253730906484e-05 -0.0005987717116837042 -0.0008240422448291329 -0.0005987717116837042 -0.001547704401075408" pbc="T T T"
Si       7.78723231       5.57028225       7.50090742
Si      -0.28573730       2.89695728       3.62649769
Si       2.80976169       6.74926335       0.93825129
Si       5.92525097       8.95324800       7.10339091
Si       5.26370069       1.63518662       1.50904382
Si       5.37687728       4.18616339       9.52629148
Si       4.59987879       0.69126145       3.29246292
Si       3.64462018       0.09885688       1.49180705
Si       6.76872434       0.66375996       5.68259740
Si       7.66596876       6.52761488       5.59538304
Si       4.32734962       5.96783067       8.95300148
Si       4.99399147       1.69234532       5.14678721
Si       1.49727854       6.09126549       2.43854013
Si       2.35190603       5.56381897       7.62512066
Si       6.74502715       2.89275030       4.82847409
Si       5.76856131       4.80762441       7.53332826
Si       4.66846002       2.23669005       8.80498548
Si       1.75260955       4.90156173       0.70441681
Si       7.09457382       2.70723269       2.23581603
Si       3.81668938       4.09894106       8.09678289
Si       6.53615673       4.44280956       3.37503014
Si       1.83182245       0.86125404       0.60828150
Si       4.73616860       8.14722527       8.68314506
Si       5.26199147       2.73660302       3.31778995
24
Lattice="6.942257873525893 -1.739204260498613 -0.006042968930664978 0.742291818807099 7.981485322470035 -0.042314593510865646 1.6652279005314947 2.556513017062634 9.504481397987654" Properties=species:S:1:pos:R:3 unique_starting_index=94 config_type=initial n_minim_iter=18 stress="0.0020528477054909964 0.003407578619548913 -6.656976866191547e-05 0.003407578619548913 -0.0006066421339039356 0.001326042183206536 -6.656976866191547e-05 0.001326042183206536 -0.0020903636386077505" pbc="T T T"
Si       7.80554151       5.57033277       7.51553033
Si      -0.29429598       2.88434718       3.62057427
Si       2.80959884       6.75114582       0.94348982
Si       5.93365405       8.96271279       7.10927010
Si       5.26105429       1.62736838       1.51761163
Si       5.39171124       4.18515735       9.53267847
Si       4.58972528       0.69698636       3.30452468
Si       3.65749091       0.09166718       1.49132057
Si       6.77589721       0.65469627       5.68258129
Si       7.67418054       6.51898357       5.60438195
Si       4.34707770       5.97013032       8.97300792
Si       5.01148134       1.70454166       5.15868700
Si       1.49823910       6.09328839       2.44364464
Si       2.36874269       5.56779677       7.63333650
Si       6.76535756       2.88995260       4.81863682
Si       5.78435049       4.80869945       7.54170059
Si       4.68812663       2.24681943       8.81726267
Si       1.75592691       4.89338893       0.71434856
Si       7.09647497       2.71392734       2.24068628
Si       3.83353953       4.10141754       8.10575417
Si       6.53028676       4.44369011       3.37565633
Si       1.83261678       0.86577505       0.61503899
Si       4.73340267       8.15874862       8.68556852
Si       5.26201292       2.73702726       3.32100444
24
Lattice="6.939396796901468 -1.738489575211915 -0.0038950634794665275 0.7414068512858164 7.975819531785399 -0.03547508212230693 1.669390113600535 2.56229972122582 9.51201413661606" Properties=species:S:1:pos:R:3 unique_starting_index=94 config_type=initial n_minim_iter=19 stress="-0.000394147758637802 0.003624994003944869 0.0012370625442918628 0.003624994003944869 -0.002245584617804243 0.0017214607244842562 0.0012370625442918628 0.0017214607244842562 -0.00149592753566111" pbc="T T T"
Si       7.81103916       5.57219088       7.52815727
Si      -0.30228102       2.87913728       3.61661599
Si       2.80604671       6.75039708       0.95106081
Si       5.93194980       8.96898692       7.12942383
Si       5.25717989       1.62005863       1.52666843
Si       5.39730027       4.18460451       9.54508773
Si       4.57336216       0.70078568       3.31577989
Si       3.66506078       0.08535462       1.49354917
Si       6.77707862       0.65058213       5.68344288
Si       7.67238541       6.50509505       5.61760776
Si       4.35602976       5.97141876       8.99379995
Si       5.01616985       1.71384763       5.16225621
Si       1.49369685       6.09617661       2.45086713
Si       2.37877750       5.57279422       7.64593317
Si       6.77576575       2.88736075       4.81132156
Si       5.78955564       4.81367599       7.55310213
Si       4.69787117       2.25936821       8.82844593
Si       1.75543289       4.88799069       0.72533934
Si       7.09031681       2.71316703       2.24596371
Si       3.84085782       4.10501836       8.11790267
Si       6.52036685       4.44575533       3.37643082
Si       1.83234040       0.86880545       0.62090512
Si       4.72294676       8.17112377       8.69490621
Si       5.26192820       2.73659573       3.32349667
24
Lattice="6.941347318143882 -1.742414914628315 -0.002671557013212159 0.7354999741902437 7.969720776276678 -0.02652981760078029 1.6720718316014853 2.5695990893005227 9.522659164193227" Properties=species:S:1:pos:R:3 unique_starting_index=94 config_type=initial n_minim_iter=20 stress="0.0004601509880305017 0.001947578398531514 0.00010172112256754842 0.001947578398531514 -0.0014969093036991243 0.0024774735124536737 0.00010172112256754842 0.0024774735124536737 0.0011222602065553563" pbc="T T T"
Si       7.81565152       5.57129500       7.54393221
Si      -0.31246089       2.87453745       3.61500581
Si       2.80110554       6.74717182       0.96113504
Si       5.92951732       8.97205089       7.14998675
Si       5.25853754       1.60859607       1.53706951
Si       5.40364241       4.18378124       9.56013210
Si       4.55911736       0.70439144       3.32726066
Si       3.67032564       0.07575971       1.49699422
Si       6.77736193       0.64523037       5.68322577
Si       7.67016206       6.48738844       5.63348171
Si       4.36089168       5.97362976       9.01638597
Si       5.02198337       1.71544649       5.17182648
Si       1.48345657       6.09632253       2.45882867
Si       2.38614905       5.57870186       7.66191516
Si       6.78614651       2.88132436       4.80488500
Si       5.79442660       4.81683707       7.56872723
Si       4.70513197       2.27004656       8.84368677
Si       1.75388009       4.88485877       0.73826457
Si       7.09269259       2.70781526       2.25091604
Si       3.84612743       4.11024299       8.13183718
Si       6.51339244       4.44907850       3.37760164
Si       1.83481954       0.87025819       0.62661675
Si       4.70655250       8.18135968       8.71188036
Si       5.25743500       2.73520712       3.32840393
24
Lattice="6.943493679371683 -1.7447436808635026 0.0011374655489814023 0.7314409334989452 7.963609723159898 -0.01818941186966243 1.678722036784182 2.5762013307604446 9.530686882328487" Properties=species:S:1:pos:R:3 unique_starting_index=94 config_type=initial n_minim_iter=21 stress="5.625386122346967e-05 -0.00019133687060160804 0.00016232777907522461 -0.00019133687060160804 -0.00017691192179504017 0.0022772105937798608 0.00016232777907522461 0.0022772105937798608 0.004719110356102406" pbc="T T T"
Si       7.82517652       5.57048643       7.56258281
Si      -0.32447102       2.86867430       3.60927609
Si       2.79881850       6.74442418       0.97582279
Si       5.93421309       8.97541627       7.16851937
Si       5.26380829       1.59756725       1.54845224
Si       5.42119854       4.18695317       9.57666583
Si       4.54569433       0.71067213       3.33989178
Si       3.67450642       0.06649968       1.50395621
Si       6.78077337       0.63406135       5.68186471
Si       7.67169537       6.47501126       5.64684941
Si       4.36875460       5.97664455       9.03753165
Si       5.02798374       1.71558605       5.18200014
Si       1.47653291       6.09857171       2.46517077
Si       2.39664249       5.58750688       7.67520343
Si       6.79617715       2.87655828       4.79306278
Si       5.80474430       4.82124494       7.58465717
Si       4.71433286       2.27453151       8.85600022
Si       1.75411112       4.88046675       0.75134654
Si       7.09428704       2.70061953       2.26052989
Si       3.85678646       4.11676635       8.14392694
Si       6.50840094       4.45391722       3.37857734
Si       1.83872844       0.87261207       0.63331340
Si       4.69391709       8.19149063       8.72513605
Si       5.25960992       2.73616829       3.33310546
