6
Lattice="3.350585154192524 -0.9834702413134885 0.4499055272113914 -2.1250551527531085 5.009495043835896 -0.7761230015317034 0.14544637237489452 -1.7987355846630815 8.76115356071117" Properties=species:S:1:pos:R:3 unique_starting_index=56 config_type=initial n_minim_iter=1 energy=-977.29450904464 free_energy=-977.29450904464 pbc="T T T"
Si      -0.62921627       2.74345618       5.77113375
Si       0.18178275       2.88755719       0.04637142
Si      -1.52297820       3.90133316       1.18203302
Si       0.62379838       1.11412904       6.65420302
Si       2.14725661      -0.27491340       6.04844558
Si      -0.20521481       2.50543816       2.09316909
6
Lattice="3.3507462107506476 -0.9835175149462396 0.4499271533549928 -2.1253188431062546 5.009230562374067 -0.7760617626968257 0.14563301555519192 -1.7984923933245407 8.760957375964137" Properties=species:S:1:pos:R:3 unique_starting_index=56 config_type=initial n_minim_iter=2 stress="-0.00019933706991711933 -6.958047810010665e-05 -3.099235510942739e-05 -6.958047810010665e-05 -0.000457536957299201 -8.17718996107794e-05 -3.099235510942739e-05 -8.17718996107794e-05 -0.00013101475036381724" pbc="T T T"
Si      -0.62926956       2.74336004       5.77108436
Si       0.18170142       2.88739571       0.04638804
Si      -1.52315289       3.90114597       1.18202653
Si       0.62386144       1.11409982       6.65409560
Si       2.14742544      -0.27487728       6.04835549
Si      -0.20527769       2.50533672       2.09317951
6
Lattice="3.3511291738311897 -0.9836299230110709 0.44997857637477146 -2.1257438163586904 5.009290877281743 -0.775914195966502 0.14595728715239917 -1.7981424229767002 8.760882035197765" Properties=species:S:1:pos:R:3 unique_starting_index=56 config_type=initial n_minim_iter=3 stress="0.0006048469934468108 -0.0001722416699388209 -4.2019502255794116e-05 -0.0001722416699388209 -2.5354970737426872e-05 -0.0001930328328872343 -4.2019502255794116e-05 -0.0001930328328872343 0.0005407338473476088" pbc="T T T"
Si      -0.62929413       2.74361619       5.77126585
Si       0.18164752       2.88748795       0.04642967
Si      -1.52341761       3.90124989       1.18208914
Si       0.62403852       1.11426123       6.65414289
Si       2.14780184      -0.27475732       6.04840225
Si      -0.20532514       2.50550088       2.09333036
6
Lattice="3.351406827886693 -0.9837114205669902 0.4500158588458846 -2.1261142638381534 5.00933016182007 -0.7753526926796366 0.1465773485415408 -1.7971117367622462 8.759658877338556" Properties=species:S:1:pos:R:3 unique_starting_index=56 config_type=initial n_minim_iter=4 stress="0.0007356712755338859 -0.00018864613227178017 0.00028608393385545105 -0.00018864613227178017 0.00027227199000424073 0.00018692724494293836 0.00028608393385545105 0.00018692724494293836 -0.0008924844848840223" pbc="T T T"
Si      -0.62911224       2.74434843       5.77110491
Si       0.18163101       2.88772292       0.04665923
Si      -1.52358608       3.90144116       1.18221327
Si       0.62439130       1.11483060       6.65349480
Si       2.14829131      -0.27421670       6.04781502
Si      -0.20525535       2.50597255       2.09343456
6
Lattice="3.351394501557417 -0.983707802518957 0.4500142037070309 -2.1263310040238275 5.009037259662817 -0.7742774687082081 0.14732677274155004 -1.7949574286379488 8.758736209578204" Properties=species:S:1:pos:R:3 unique_starting_index=56 config_type=initial n_minim_iter=5 stress="-0.00027466619364980557 -5.0862001955276803e-05 4.6909133592854594e-05 -5.0862001955276803e-05 -0.0002889131544335079 0.0003012387574393492 4.6909133592854594e-05 0.0003012387574393492 5.570730721042622e-05" pbc="T T T"
Si      -0.62887168       2.74553993       5.77193600
Si       0.18171364       2.88815367       0.04700350
Si      -1.52362156       3.90149596       1.18266599
Si       0.62469544       1.11576802       6.65324627
Si       2.14864974      -0.27304749       6.04761819
Si      -0.20508594       2.50685157       2.09411249
6
Lattice="3.353070196391809 -0.9841996557109544 0.45023921048441995 -2.1280845691394994 5.01061047418356 -0.7715587514919274 0.15026231898966774 -1.7903233918908377 8.753893850891696" Properties=species:S:1:pos:R:3 unique_starting_index=56 config_type=initial n_minim_iter=6 stress="-1.9703274408353317e-05 0.00011276665067458401 0.00017483197454126203 0.00011276665067458401 0.0004380104802199185 0.00018176735887919738 0.00017483197454126203 0.00018176735887919738 -0.0009340204522787376" pbc="T T T"
Si      -0.62854414       2.74871321       5.77397681
Si       0.18236754       2.89200141       0.04808813
Si      -1.52422324       3.90344199       1.18205454
Si       0.62609737       1.11695427       6.64983202
Si       2.15129963      -0.27003274       6.04579679
Si      -0.20426116       2.51134552       2.09533710
6
Lattice="3.3539609923862086 -0.984461123875844 0.45035882363348334 -2.1295668326050325 5.009066769764944 -0.7712195380670381 0.15086416073406136 -1.7884591990062781 8.757149379949881" Properties=species:S:1:pos:R:3 unique_starting_index=56 config_type=initial n_minim_iter=7 stress="3.507351272751333e-05 -0.00014180597934327277 0.000105265038616363 -0.00014180597934327277 -0.00020574341334502212 0.00040777579486876584 0.000105265038616363 0.00040777579486876584 0.00019826695059148487" pbc="T T T"
Si      -0.62933768       2.74854379       5.77821026
Si       0.18217011       2.89246790       0.04927228
Si      -1.52507403       3.90256679       1.18150897
Si       0.62576293       1.11564917       6.65182654
Si       2.15158349      -0.27066264       6.04832517
Si      -0.20440905       2.51195502       2.09646494
6
Lattice="3.353092327664415 -0.9842061517249366 0.4502421821987358 -2.128320533875974 5.008956039636762 -0.7735999478877527 0.14898014558402678 -1.7933976291513338 8.756813462695611" Properties=species:S:1:pos:R:3 unique_starting_index=56 config_type=initial n_minim_iter=8 stress="-7.847040687070197e-07 1.6779547263585807e-05 -0.00010843973161378371 1.6779547263585807e-05 -0.00014367820621685666 -0.00039472467855347805 -0.00010843973161378371 -0.00039472467855347805 -7.55344453656146e-05" pbc="T T T"
Si      -0.62987152       2.74489001       5.77547240
Si       0.18249377       2.89221546       0.04758353
Si      -1.52437188       3.90171202       1.17925644
Si       0.62456015       1.11225318       6.65106241
Si       2.14998172      -0.27414043       6.04678202
Si      -0.20443386       2.51041822       2.09456382
6
Lattice="3.3526979484560444 -0.984090392776163 0.4501892262589527 -2.127875460027404 5.009296305214297 -0.7729276845039884 0.14883331700451344 -1.7920029013446879 8.759334212045669" Properties=species:S:1:pos:R:3 unique_starting_index=56 config_type=initial n_minim_iter=9 stress="0.00012576791411190424 3.3417522976961604e-05 -4.559635229952655e-05 3.3417522976961604e-05 0.00019931177038505146 -5.328251721639329e-05 -4.559635229952655e-05 -5.328251721639329e-05 0.00033293387166179986" pbc="T T T"
Si      -0.63001205       2.74531133       5.77801812
Si       0.18275810       2.89318514       0.04831281
Si      -1.52395203       3.90243586       1.17991162
Si       0.62433091       1.11355643       6.65457511
Si       2.14969315      -0.27334161       6.04801236
Si      -0.20408972       2.51167138       2.09531841
6
Lattice="3.352908083566357 -0.9841520720405713 0.4502174425087241 -2.1283540792402973 5.008982815095977 -0.7717765177660402 0.14979872612713865 -1.7896720819869578 8.75810355585251" Properties=species:S:1:pos:R:3 unique_starting_index=56 config_type=initial n_minim_iter=10 stress="3.033008193978876e-05 1.2784978666931573e-05 2.6561076712915187e-05 1.2784978666931573e-05 7.991787694568942e-05 1.358956873728637e-05 2.6561076712915187e-05 1.358956873728637e-05 -0.00013795848701077989" pbc="T T T"
Si      -0.63008294       2.74591264       5.77955245
Si       0.18310984       2.89487284       0.04907447
Si      -1.52386020       3.90296225       1.17920635
Si       0.62443846       1.11351918       6.65424868
Si       2.15011452      -0.27282089       6.04743251
Si      -0.20376311       2.51325814       2.09604652
6
Lattice="3.3525939016177277 -0.9840598527467423 0.4501752551925589 -2.1282535753573764 5.008590440449884 -0.7707991281183445 0.1502231026120569 -1.7876407131267684 8.758091768861595" Properties=species:S:1:pos:R:3 unique_starting_index=56 config_type=initial n_minim_iter=11 stress="-5.8961610158877804e-06 -9.741304882133812e-06 -7.307601032028297e-08 -9.741304882133812e-06 -4.4297805940637286e-05 -1.7626315143924835e-05 -7.307601032028297e-08 -1.7626315143924835e-05 -4.103268156006853e-05" pbc="T T T"
Si      -0.63019092       2.74608030       5.78118373
Si       0.18354984       2.89661646       0.05006969
Si      -1.52332056       3.90376844       1.17870214
Si       0.62419294       1.11344440       6.65508240
Si       2.14990266      -0.27257219       6.04743088
Si      -0.20344641       2.51452552       2.09691901
6
Lattice="3.3514889538027064 -0.9837355263248578 0.4500268864431072 -2.127417208683074 5.008350077318459 -0.7684670134024696 0.151024679532002 -1.7832547894472344 8.757166472753314" Properties=species:S:1:pos:R:3 unique_starting_index=56 config_type=initial n_minim_iter=12 stress="-8.248272601449531e-05 -2.08968499939423e-05 -8.546857927594386e-07 -2.08968499939423e-05 -0.000135465401462226 2.665084523647048e-05 -8.546857927594386e-07 2.665084523647048e-05 -1.18413270266418e-05" pbc="T T T"
Si      -0.62991763       2.74691024       5.78258246
Si       0.18458104       2.90037107       0.05221725
Si      -1.52174974       3.90639706       1.17891270
Si       0.62389216       1.11440443       6.65649771
Si       2.14929356      -0.27142360       6.04701144
Si      -0.20275341       2.51697781       2.09873843
6
Lattice="3.350784899408723 -0.9835288709160616 0.44993234834043766 -2.126373374341746 5.009524058260644 -0.7678849215696761 0.15095456782128466 -1.7829078224786534 8.755552275014805" Properties=species:S:1:pos:R:3 unique_starting_index=56 config_type=initial n_minim_iter=13 stress="3.331576282102426e-05 1.4141763325835383e-05 -1.1771000214840701e-05 1.4141763325835383e-05 8.649108931034251e-05 2.344918436043919e-05 -1.1771000214840701e-05 2.344918436043919e-05 0.00016650524689658172" pbc="T T T"
Si      -0.62933358       2.74630781       5.77794810
Si       0.18560330       2.90371570       0.05294743
Si      -1.52063381       3.90960202       1.18153488
Si       0.62373025       1.11440874       6.65585031
Si       2.14858088      -0.27187678       6.04657092
Si      -0.20240726       2.51773396       2.09884554
6
Lattice="3.351807151664927 -0.9838289243774208 0.45006961300290854 -2.1273856475206685 5.0098885257113706 -0.7679556978436661 0.15158781914962974 -1.7830512875049649 8.754725746878892" Properties=species:S:1:pos:R:3 unique_starting_index=56 config_type=initial n_minim_iter=14 stress="-5.2237857154568394e-05 3.644227094001384e-05 1.5200827717339414e-05 3.644227094001384e-05 8.991999540736517e-05 5.827334794441772e-05 1.5200827717339414e-05 5.827334794441772e-05 -4.671606772693439e-05" pbc="T T T"
Si      -0.63020312       2.74340079       5.77657067
Si       0.18721312       2.91002195       0.05324516
Si      -1.52088953       3.91158618       1.18207484
Si       0.62296490       1.11026356       6.65519339
Si       2.14857323      -0.27519633       6.04627913
Si      -0.20181826       2.52011562       2.09816665
6
Lattice="3.352095571109933 -0.98391358181131 0.4501083410150294 -2.127860412789307 5.0092237834224225 -0.7682448001437999 0.15161780991297721 -1.783231026857258 8.755295362133703" Properties=species:S:1:pos:R:3 unique_starting_index=56 config_type=initial n_minim_iter=15 stress="0.00014178059439589748 -0.0001171326883049992 -3.678992895514904e-05 -0.0001171326883049992 -0.00033018037543981434 -0.00022371552920878813 -3.678992895514904e-05 -0.00022371552920878813 -4.382307050793669e-05" pbc="T T T"
Si      -0.63115543       2.74122913       5.77849284
Si       0.18842177       2.91432754       0.05323294
Si      -1.52102181       3.91190593       1.18215028
Si       0.62218077       1.10737251       6.65547648
Si       2.14828388      -0.27732477       6.04573025
Si      -0.20195562       2.51927065       2.09691973
6
Lattice="3.3516308130378283 -0.9837771651221972 0.4500459348334716 -2.127502733001759 5.0089327468298315 -0.7677229400896204 0.15163076110452453 -1.7821391878564172 8.755674712945696" Properties=species:S:1:pos:R:3 unique_starting_index=56 config_type=initial n_minim_iter=16 stress="0.00024904335658317657 -0.00010254575839235658 -0.0001623114093500777 -0.00010254575839235658 -0.0002578268682119624 -0.00036245609182317427 -0.0001623114093500777 -0.00036245609182317427 0.000673820953607159" pbc="T T T"
Si      -0.63245900       2.73668355       5.77894587
Si       0.19271189       2.92905737       0.05416307
Si      -1.52013729       3.91628536       1.18772840
Si       0.62034514       1.10211685       6.65642873
Si       2.14679163      -0.28171568       6.04410470
Si      -0.20223601       2.51649227       2.09361586
6
Lattice="3.351354134455834 -0.9836959538891505 0.4500087833457247 -2.1271413297557245 5.009362514424123 -0.7671997859727202 0.151774268293006 -1.7813979910522058 8.755088595729132" Properties=species:S:1:pos:R:3 unique_starting_index=56 config_type=initial n_minim_iter=17 stress="5.953623616249388e-05 -3.0870871930655506e-05 -3.0707346115386225e-05 -3.0870871930655506e-05 -7.496668334950731e-05 -7.490574016845942e-05 -3.0707346115386225e-05 -7.490574016845942e-05 0.00012942122722304716" pbc="T T T"
Si      -0.63214460       2.73695712       5.77760805
Si       0.19316703       2.93065367       0.05466854
Si      -1.51976443       3.91745977       1.18906202
Si       0.62034101       1.10246477       6.65648809
Si       2.14665310      -0.28142526       6.04390169
Si      -0.20210790       2.51677967       2.09369564
6
Lattice="3.351237218963819 -0.9836616366275815 0.44999308431894136 -2.1269780038681994 5.009622267964441 -0.766886895886446 0.15188793028354955 -1.7809424174320123 8.754757269997281" Properties=species:S:1:pos:R:3 unique_starting_index=56 config_type=initial n_minim_iter=18 stress="-2.1835284738173174e-05 1.8427323596385898e-05 8.613356400129045e-07 1.8427323596385898e-05 4.593115249152231e-05 2.2470559997551643e-05 8.613356400129045e-07 2.2470559997551643e-05 1.5576400170544055e-05" pbc="T T T"
Si      -0.63205416       2.73680977       5.77678380
Si       0.19374816       2.93274671       0.05508734
Si      -1.51954603       3.91833669       1.19000454
Si       0.62015592       1.10204321       6.65663569
Si       2.14653628      -0.28157465       6.04365509
Si      -0.20203249       2.51690917       2.09358851
