4
Lattice="1.9390188856080035 -3.3584792267086487 -3.0476941569878906e-18 1.9390188856080037 3.3584792267086487 3.0476941569878894e-18 -2.4410814545787075e-34 5.762810742306854e-18 6.374796659588414" Properties=species:S:1:pos:R:3 cutoff=-1.0 nneightol=1.2 n_minim_iter=3 pbc="T T T"
Si       1.93901889       1.11949308       0.39927727
Si       1.93901889      -1.11949308       3.58667560
Si       1.93901889       1.11949308       2.78812106
Si       1.93901889      -1.11949308      -0.39927727
