8
Lattice="7.589320745458086 0.10431768627509325 0.14932493992316226 -3.6128300227113175 6.675037886342368 -0.14932493992315915 -3.6128304513720972 -2.4367630926487887 6.21615727397051" Properties=species:S:1:pos:R:3 unique_starting_index=16 config_type=initial n_minim_iter=1 energy=-1306.7049303280912 free_energy=-1306.7049303280912 pbc="T T T"
Si      -2.22128741       1.30315490       3.58190809
Si       3.96128105       2.23261553       1.47933350
Si       2.58498619       1.42816469       3.76085233
Si      -3.59758212       3.72216140       3.61152739
Si       2.58498627       3.03989336       2.63490257
Si      -3.59758220       2.11043273       4.73747716
Si       3.96128098       0.62088686       2.60528327
Si      -2.22128733       2.91488357       2.45595833
8
Lattice="7.587605255937472 0.10495797964071672 0.15024148085192834 -3.6114339355609575 6.673853057005296 -0.15024148085192518 -3.611434364187305 -2.4372160377610848 6.2147294404854" Properties=species:S:1:pos:R:3 unique_starting_index=16 config_type=initial n_minim_iter=2 stress="-0.0024197005687499238 0.0008261197694966211 0.0011825401545071798 0.0008261197694966211 -0.0014958507599776762 -0.0006936293432762623 0.0011825401545071798 -0.0006936293432762623 -0.0020041711084380466" pbc="T T T"
Si      -2.22053300       1.30271238       3.58105794
Si       3.96049757       2.23270912       1.47968419
Si       2.58530858       1.42781310       3.76013235
Si      -3.59572184       3.72086674       3.60989087
Si       2.58530866       3.03933829       2.63432473
Si      -3.59572192       2.10934154       4.73569849
Si       3.96049749       0.62118393       2.60549181
Si      -2.22053293       2.91423757       2.45525032
8
Lattice="7.635361684437785 0.090574899293127 0.1296529785645889 -3.6472947821997352 6.708516425879954 -0.12965297856458574 -3.647295212108411 -2.42981041497686 6.254360138528502" Properties=species:S:1:pos:R:3 unique_starting_index=16 config_type=initial n_minim_iter=3 stress="0.0035432039291757767 0.006125290658232945 0.008767980659512767 0.006125290658232945 0.010393116995328525 -0.005142936282999289 0.008767980659512767 -0.005142936282999289 0.00662416000291649" pbc="T T T"
Si      -2.25598376       1.32350705       3.61441042
Si       3.96986424       2.24084461       1.48774348
Si       2.59679156       1.43134001       3.76876708
Si      -3.62905629       3.74378730       3.63911410
Si       2.59679164       3.04623244       2.64060712
Si      -3.62905637       2.12889488       4.76727406
Si       3.96986417       0.62595218       2.61590344
Si      -2.25598369       2.93839947       2.48625046
8
Lattice="7.716909215385205 0.0419601570972602 0.06006393476667727 -3.729525139031657 6.755967046294088 -0.06006393476667413 -3.7295255688667246 -2.3807951552873794 6.322856129097818" Properties=species:S:1:pos:R:3 unique_starting_index=16 config_type=initial n_minim_iter=4 stress="-0.0017077821486731612 0.0013131661999372555 0.0018797174674971765 0.0013131661999372555 -0.00023926827515010878 -0.0011025648368509875 0.0018797174674971765 -0.0011025648368509875 -0.0010472735123870848" pbc="T T T"
Si      -2.34011081       1.37285247       3.68054726
Si       3.97097110       2.23941301       1.49019235
Si       2.59799672       1.43407427       3.76818288
Si      -3.71308504       3.78885155       3.70811895
Si       2.59799679       3.04474318       2.64297346
Si      -3.71308512       2.17818264       4.83332837
Si       3.97097103       0.62874410       2.61540177
Si      -2.34011073       2.98352138       2.55533784
8
Lattice="7.711030865424123 0.015175059834364082 0.02172269528452967 -3.7500349025895887 6.7377641335478975 -0.021722695284526784 -3.750035329580049 -2.338531879285573 6.3189558347816766" Properties=species:S:1:pos:R:3 unique_starting_index=16 config_type=initial n_minim_iter=5 stress="0.005304616326857108 -0.0035262463466967614 -0.0050476069616314095 -0.0035262463466967614 0.00136121473623228 0.002960718321971145 -0.0050476069616314095 0.002960718321971145 0.0035309519073960195" pbc="T T T"
Si      -2.35879399       1.38380966       3.69602440
Si       3.94657955       2.22348540       1.46760036
Si       2.56977710       1.42058681       3.74866898
Si      -3.73559630       3.80185939       3.72694628
Si       2.56977717       3.03106097       2.62359561
Si      -3.73559637       2.19138523       4.85201966
Si       3.94657948       0.61301124       2.59267373
Si      -2.35879391       2.99428382       2.57095103
8
Lattice="7.732168349450385 -0.0704820931435944 -0.10089031266603884 -3.8351142646162097 6.714409407165572 0.10089031266604202 -3.8351146847138127 -2.215369058618335 6.339212037319384" Properties=species:S:1:pos:R:3 unique_starting_index=16 config_type=initial n_minim_iter=6 stress="-0.0010385724101679627 -0.0006356066683062361 -0.0009098322489030443 -0.0006356066683062361 -0.0017493714016107987 0.0005336701192719955 -0.0009098322489030443 0.0005336701192719955 -0.0013582758062181091" pbc="T T T"
Si      -2.44521017       1.43449399       3.76951835
Si       3.88052851       2.18896561       1.41724493
Si       2.50715639       1.38317002       3.69605154
Si      -3.81858214       3.85141651       3.79694185
Si       2.50715647       2.99452907       2.57035999
Si      -3.81858221       2.24005745       4.92263340
Si       3.88052843       0.57760656       2.54293648
Si      -2.44521010       3.04585304       2.64382679
8
Lattice="7.719215523302502 -0.05022288231179002 -0.0718904843206636 -3.811110099760513 6.712991169412153 0.07189048432066707 -3.8111105210494354 -2.242110528809096 6.327902958151898" Properties=species:S:1:pos:R:3 unique_starting_index=16 config_type=initial n_minim_iter=7 stress="0.0002611650165535161 8.176076956944924e-06 1.1703556391195028e-05 8.176076956944924e-06 0.0002703083241182712 -6.86482408741079e-06 1.1703556391195028e-05 -6.86482408741079e-06 0.00026527749633304087" pbc="T T T"
Si      -2.42085799       1.42021067       3.74959340
Si       3.89150108       2.19519183       1.42563663
Si       2.51786339       1.38906305       3.70500781
Si      -3.79449553       3.83777793       3.77689830
Si       2.51786347       3.00091107       2.57897467
Si      -3.79449560       2.22592991       4.90293144
Si       3.89150101       0.58334381       2.55166977
Si      -2.42085791       3.03205869       2.62356026
8
Lattice="7.71984404470222 -0.05267671058053868 -0.07540299033367807 -3.813558597941242 6.7123421940802785 0.07540299033368171 -3.813559019033974 -2.238589177244418 6.328502083841163" Properties=species:S:1:pos:R:3 unique_starting_index=16 config_type=initial n_minim_iter=8 stress="1.6828944856172624e-05 -1.1374901963883751e-06 -1.6282479634022265e-06 -1.1374901963883751e-06 1.5556889476915724e-05 9.550631823742378e-07 -1.6282479634022265e-06 9.550631823742378e-07 1.625679938364871e-05" pbc="T T T"
Si      -2.42335428       1.42167478       3.75165446
Si       3.88966178       2.19418542       1.42423074
Si       2.51609076       1.38805014       3.70352316
Si      -3.79692514       3.83917032       3.77892615
Si       2.51609083       2.99986555       2.57751280
Si      -3.79692522       2.22735491       4.90493652
Si       3.88966170       0.58237000       2.55024110
Si      -2.42335420       3.03349019       2.62564409
