24
Lattice="7.986094997040053 -1.037947614671337e-11 1.6126592714255746e-14 3.993047498529015 6.916161144467307 -3.7950861948721165e-14 3.9930474985229956 2.305387048152397 13.420144715044039" Properties=species:S:1:pos:R:3 unique_starting_index=24 config_type=initial n_minim_iter=1 energy=-3957.121657554932 free_energy=-3957.121657554932 pbc="T T T"
Si       8.82691176       3.79752266      13.60215364
Si       8.26998222       5.74556849      13.60215364
Si       6.86138981       4.28923045      13.60215364
Si       9.08817687       4.78427414      10.69143472
Si       7.28479782       5.47845498      10.69143472
Si       7.58530910       3.56959249      10.69143472
Si       9.57772686       3.78088152       2.31707468
Si       7.90898633       6.40411402       2.31707468
Si       6.47157061       3.64732607       2.31707468
Si       8.93137847       5.21465033       3.50181378
Si       6.99048031       5.12747548       3.50181378
Si       8.03642502       3.49019579       3.50181378
Si       8.63475810       6.39467580       9.64872094
Si       6.11685846       4.28058198       9.64872094
Si       9.20666724       3.15706383       9.64872094
Si      10.73308359       3.70566794      10.73686714
Si       7.39644483       7.44228908      10.73686714
Si       5.82875538       2.68436458      10.73686714
Si       8.71695888       8.36965794       9.66400870
Si       4.36537336       3.36427886       9.66400870
Si      10.87595156       2.09838479       9.66400870
Si       4.54766181       1.31823405       2.29960386
Si       4.57063912       3.27927364       2.29960386
Si       2.86084037       2.31865277       2.29960386
24
Lattice="7.986942570984418 -1.0384802545231912e-11 1.6141110609644323e-14 3.9934712855012036 6.916895165034709 -3.799587604240099e-14 3.993471285495179 2.3056317216748625 13.41976106178286" Properties=species:S:1:pos:R:3 unique_starting_index=24 config_type=initial n_minim_iter=2 stress="0.0013193959551401609 -3.0306883738389907e-15 2.7892501224939014e-15 -3.0306883738389907e-15 0.001319395955138225 1.0816180485166997e-15 2.7892501224939014e-15 1.0816180485166997e-15 0.000842085352067073" pbc="T T T"
Si       8.82784207       3.79797919      13.60177288
Si       8.27081684       5.74614590      13.60177288
Si       6.86216760       4.28966455      13.60177288
Si       9.08916240       4.78480123      10.69112167
Si       7.28554373       5.47904492      10.69112167
Si       7.58612039       3.56994349      10.69112167
Si       9.57872475       3.78128611       2.31703874
Si       7.90983214       6.40477591       2.31703874
Si       6.47226963       3.64772762       2.31703874
Si       8.93230801       5.21519629       3.50169002
Si       6.99123787       5.12800751       3.50169002
Si       8.03728064       3.49058584       3.50169002
Si       8.63567463       6.39532849       9.64846477
Si       6.11753009       4.28104937       9.64846477
Si       9.20762179       3.15741179       9.64846477
Si      10.73422337       3.70604388      10.73656449
Si       7.39724451       7.44308819      10.73656449
Si       5.82935864       2.68465757      10.73656449
Si       8.71788668       8.37052494       9.66370806
Si       4.36585377       3.36464886       9.66370806
Si      10.87708607       2.09861584       9.66370806
Si       4.54818051       1.31836663       2.29953119
Si       4.57111252       3.27965655       2.29953119
Si       2.86111962       2.31887130       2.29953119
24
Lattice="7.987368088009788 -1.0417628479357418e-11 1.6193867662920495e-14 3.9936840440139165 6.917263673588404 -3.797912378128709e-14 3.9936840440078742 2.305754557859416 13.412910595092084" Properties=species:S:1:pos:R:3 unique_starting_index=24 config_type=initial n_minim_iter=3 stress="0.00028451781211821266 -2.126856091009079e-15 3.0007146557408632e-15 -2.126856091009079e-15 0.0002845178121093174 6.670383642050674e-16 3.0007146557408632e-15 6.670383642050674e-16 -0.001920533818651223" pbc="T T T"
Si       8.82824460       3.79869169      13.59490639
Si       8.27084957       5.74613825      13.59490639
Si       6.86300889       4.28969672      13.59490639
Si       9.08979818       4.78520620      10.68557618
Si       7.28572616       5.47939304      10.68557618
Si       7.58657873       3.56992742      10.68557618
Si       9.57906636       3.78150498       2.31615173
Si       7.91032282       6.40496232       2.31615173
Si       6.47271389       3.64805935       2.31615173
Si       8.93258376       5.21538619       3.49966801
Si       6.99178657       5.12815137       3.49966801
Si       8.03773274       3.49098910       3.49966801
Si       8.63611144       6.39543599       9.64375393
Si       6.11806962       4.28137390       9.64375393
Si       9.20792201       3.15771676       9.64375393
Si      10.73478575       3.70606315      10.73108836
Si       7.39779767       7.44356559      10.73108836
Si       5.82951965       2.68489792      10.73108836
Si       8.71833353       8.37079868       9.65857143
Si       4.36624431       3.36489898       9.65857143
Si      10.87752523       2.09882900       9.65857143
Si       4.54873676       1.31837346       2.29829150
Si       4.57125401       3.28013486       2.29829150
Si       2.86106017       2.31875467       2.29829150
24
Lattice="7.986355362266147 -1.0476635766156313e-11 1.6298017583953122e-14 3.993177681142149 6.9163866273673165 -3.8022794078906494e-14 3.9931776811360713 2.305462209119032 13.42494638652661" Properties=species:S:1:pos:R:3 unique_starting_index=24 config_type=initial n_minim_iter=4 stress="-4.510797901698424e-05 -1.2474381963297952e-15 6.214827073754501e-15 -1.2474381963297952e-15 -4.510797902259442e-05 2.827685730146743e-15 6.214827073754501e-15 2.827685730146743e-15 0.00039833720546966967" pbc="T T T"
Si       8.82700252       3.79945577      13.60729761
Si       8.26878345       5.74468054      13.60729761
Si       6.86327892       4.28863626      13.60729761
Si       9.08883289       4.78484918      10.69502863
Si       7.28449255       5.47873558      10.69502863
Si       7.58573946       3.56918781      10.69502863
Si       9.57766095       3.78092322       2.31881160
Si       7.90950390       6.40403608       2.31881160
Si       6.47190005       3.64781327       2.31881160
Si       8.93105000       5.21454173       3.50239590
Si       6.99125932       5.12724532       3.50239590
Si       8.03675557       3.49098552       3.50239590
Si       8.63502428       6.39422219       9.65279414
Si       6.11763894       4.28103930       9.65279414
Si       9.20640167       3.15751108       9.65279414
Si      10.73340130       3.70526237      10.74077998
Si       7.39715794       7.44276701      10.74077998
Si       5.82850566       2.68474319      10.74077998
Si       8.71710524       8.36947499       9.66668179
Si       4.36597935       3.36449709       9.66668179
Si      10.87598031       2.09880049       9.66668179
Si       4.54884448       1.31809465       2.30023634
Si       4.57042887       3.28036755       2.30023634
Si       2.86025850       2.31792373       2.30023634
24
Lattice="7.986513677352571 -1.0567797065837913e-11 1.629456039613687e-14 3.9932568386854395 6.916523732253913 -3.8010439371477734e-14 3.9932568386793093 2.305507910747867 13.427446965563483" Properties=species:S:1:pos:R:3 unique_starting_index=24 config_type=initial n_minim_iter=5 stress="1.699715986337679e-05 1.52189907813946e-16 8.532064849080635e-15 1.52189907813946e-16 1.6997159851521915e-05 1.6560557261150816e-15 8.532064849080635e-15 1.6560557261150816e-15 0.00014024065389966426" pbc="T T T"
Si       8.82756416       3.80244942      13.61037405
Si       8.26622668       5.74367011      13.61037405
Si       6.86574900       4.28692725      13.61037405
Si       9.08876182       4.78478949      10.69751687
Si       7.28489640       5.47870388      10.69751687
Si       7.58588162       3.56955341      10.69751687
Si       9.57852834       3.78017260       2.31984768
Si       7.91003689       6.40516258       2.31984768
Si       6.47097461       3.64771160       2.31984768
Si       8.93186368       5.21493781       3.50276790
Si       6.99082610       5.12775195       3.50276790
Si       8.03685006       3.49035702       3.50276790
Si       8.63501675       6.39428798       9.65519840
Si       6.11790235       4.28099987       9.65519840
Si       9.20662074       3.15775892       9.65519840
Si      10.73419438       3.70421697      10.74227200
Si       7.39798337       7.44397654      10.74227200
Si       5.82736209       2.68485327      10.74227200
Si       8.71711079       8.36996690       9.66752849
Si       4.36586720       3.36425594       9.66752849
Si      10.87656185       2.09882394       9.66752849
Si       4.55037483       1.31847828       2.30015910
Si       4.56948978       3.28150107       2.30015910
Si       2.85990471       2.31654370       2.30015910
24
Lattice="7.985458770196264 -1.068954601938421e-11 1.6291970061422368e-14 3.9927293851073915 6.915610155857855 -3.7999774841452474e-14 3.9927293851011902 2.305203385282474 13.427589292714885" Properties=species:S:1:pos:R:3 unique_starting_index=24 config_type=initial n_minim_iter=6 stress="-5.561161711741403e-05 8.96976624187339e-16 9.356419911037772e-15 8.96976624187339e-16 -5.561161712880478e-05 3.648260308527985e-15 9.356419911037772e-15 3.648260308527985e-15 5.0285481218162686e-05" pbc="T T T"
Si       8.82813927       3.80578921      13.61144761
Si       8.26093697       5.74249828      13.61144761
Si       6.86729887       4.28293214      13.61144761
Si       9.08844100       4.78338827      10.69896692
Si       7.28416049       5.47912666      10.69896692
Si       7.58377363       3.56870470      10.69896692
Si       9.57837849       3.77850744       2.32070018
Si       7.90944407       6.40586538       2.32070018
Si       6.46855256       3.64684680       2.32070018
Si       8.93106196       5.21399569       3.50237014
Si       6.98993304       5.12752870       3.50237014
Si       8.03538012       3.48969523       3.50237014
Si       8.63394583       6.39396616       9.65580080
Si       6.11660670       4.28023334       9.65580080
Si       9.20582259       3.15702012       9.65580080
Si      10.73296127       3.70318746      10.74203439
Si       7.39738169       7.44342339      10.74203439
Si       5.82603215       2.68460878      10.74203439
Si       8.71661903       8.36875767       9.66573371
Si       4.36505049       3.36443468       9.66573371
Si      10.87470560       2.09802728       9.66573371
Si       4.55167064       1.31983688       2.29927318
Si       4.56661039       3.28194397       2.29927318
Si       2.85990593       2.31382862       2.29927318
24
Lattice="7.984047603238967 -1.0889984786004122e-11 1.6286029587734034e-14 3.9920238016289167 6.914388049423751 -3.7997025130374696e-14 3.9920238016225986 2.3047960164710397 13.423790481871135" Properties=species:S:1:pos:R:3 unique_starting_index=24 config_type=initial n_minim_iter=7 stress="9.420904819128486e-05 9.45601138423419e-16 9.051564365053089e-15 9.45601138423419e-16 9.420904817239365e-05 8.145776828647497e-16 9.051564365053089e-15 8.145776828647497e-16 -0.0003641919404593092" pbc="T T T"
Si       8.83165938       3.81058776      13.60936388
Si       8.25219892       5.74314750      13.60936388
Si       6.86828332       4.27504015      13.60936388
Si       9.08657851       4.78207466      10.69813928
Si       7.28340702       5.47817049      10.69813928
Si       7.58215609       3.56853026      10.69813928
Si       9.57854384       3.77580788       2.32144468
Si       7.90887695       6.40735835       2.32144468
Si       6.46472083       3.64560918       2.32144468
Si       8.92942794       5.21199202       3.50052462
Si       6.98966295       5.12711543       3.50052462
Si       8.03305072       3.48966796       3.50052462
Si       8.63377649       6.39200238       9.65370203
Si       6.11556973       4.28106858       9.65370203
Si       9.20279540       3.15570445       9.65370203
Si      10.73226536       3.70179837      10.73880134
Si       7.39611030       7.44351526      10.73880134
Si       5.82376595       2.68346178      10.73880134
Si       8.71585604       8.36788582       9.65961845
Si       4.36336469       3.36420983       9.65961845
Si      10.87292088       2.09667976       9.65961845
Si       4.55436528       1.32223259       2.29705177
Si       4.56177715       3.28307973       2.29705177
Si       2.85992778       2.30907503       2.29705177
24
Lattice="7.980717956338788 -1.1237351867135372e-11 1.6276570818522533e-14 3.990358978179127 6.91150449062239 -3.7980834604774364e-14 3.99035897817261 2.303834830203803 13.427625225237323" Properties=species:S:1:pos:R:3 unique_starting_index=24 config_type=initial n_minim_iter=8 stress="0.00057465448847822 2.2008805412567444e-15 1.2525513579940829e-14 2.2008805412567444e-15 0.0005746544884582055 1.2194383738758942e-15 1.2525513579940829e-14 1.2194383738758942e-15 -0.0008945342827522392" pbc="T T T"
Si       8.83953746       3.81727795      13.61642758
Si       8.23580671       5.74662503      13.61642758
Si       6.86680850       4.25910532      13.61642758
Si       9.08388130       4.77915160      10.70441222
Si       7.28062777       5.47729618      10.70441222
Si       7.57764360       3.56656052      10.70441222
Si       9.57782090       3.77007480       2.32421875
Si       7.90754411       6.40959881       2.32421875
Si       6.45678766       3.64333468       2.32421875
Si       8.92678364       5.20889533       3.50017204
Si       6.98700762       5.12637374       3.50017204
Si       8.02836142       3.48773922       3.50017204
Si       8.63248712       6.38781755       9.65839524
Si       6.11317928       4.28204437       9.65839524
Si       9.19648627       3.15314637       9.65839524
Si      10.72829956       3.69784009      10.74014651
Si       7.39486188       7.44205992      10.74014651
Si       5.81899123       2.68310829      10.74014651
Si       8.71173124       8.36343241       9.65720749
Si       4.36262457       3.36286437       9.65720749
Si      10.86779686       2.09671152       9.65720749
Si       4.55944642       1.32433135       2.29551435
Si       4.55408936       3.28643076       2.29551435
Si       2.85753996       2.30074170       2.29551435
24
Lattice="7.978024491774974 -1.1392955087927112e-11 1.6257937413996513e-14 3.9890122458973543 6.909171881885851 -3.7962356462177734e-14 3.989012245890748 2.3030572939582394 13.440777688317322" Properties=species:S:1:pos:R:3 unique_starting_index=24 config_type=initial n_minim_iter=9 stress="0.0006363008487409687 1.7709587904501149e-15 1.6031256792367752e-14 1.7709587904501149e-15 0.0006363008487169563 4.4421223418718455e-15 1.6031256792367752e-14 4.4421223418718455e-15 -0.0005908130800914447" pbc="T T T"
Si       8.84228390       3.81989981      13.63103107
Si       8.22677596       5.74769258      13.63103107
Si       6.86501242       4.25075069      13.63103107
Si       9.08117848       4.77658203      10.71592077
Si       7.27881756       5.47624025      10.71592077
Si       7.57407624       3.56552080      10.71592077
Si       9.57408918       3.76800688       2.32765258
Si       7.90581392       6.40740101       2.32765258
Si       6.45416918       3.64293519       2.32765258
Si       8.92504334       5.20729700       3.50246185
Si       6.98387503       5.12566577       3.50246185
Si       8.02515391       3.48538031       3.50246185
Si       8.63037718       6.38499112       9.66888685
Si       6.11129509       4.28163033       9.66888685
Si       9.19240001       3.15172163       9.66888685
Si      10.72551020       3.69585480      10.74920511
Si       7.39258894       7.44063691      10.74920511
Si       5.81597314       2.68185137      10.74920511
Si       8.70954085       8.36044569       9.66497436
Si       4.36091941       3.36246079       9.66497436
Si      10.86361202       2.09543660       9.66497436
Si       4.56120249       1.32557541       2.29757738
Si       4.54944047       3.28732952       2.29757738
Si       2.85639258       2.29626626       2.29757738
24
Lattice="7.976386782573939 -1.1483727611352613e-11 1.6270861259448746e-14 3.988193391296914 6.907753584113704 -3.796733300327439e-14 3.988193391290257 2.3025845280341604 13.44405349246609" Properties=species:S:1:pos:R:3 unique_starting_index=24 config_type=initial n_minim_iter=10 stress="0.00031295562055716107 1.4113980932692636e-15 1.7091919250620707e-14 1.4113980932692636e-15 0.00031295562053930523 3.37387064814029e-15 1.7091919250620707e-14 3.37387064814029e-15 -0.00028271164876803506" pbc="T T T"
Si       8.84354712       3.82236059      13.63477320
Si       8.22073784       5.74755617      13.63477320
Si       6.86487420       4.24558972      13.63477320
Si       9.07993546       4.77579486      10.71929583
Si       7.27684537       5.47555735      10.71929583
Si       7.57237832       3.56415428      10.71929583
Si       9.57159548       3.76611061       2.32765815
Si       7.90542757       6.40618954       2.32765815
Si       6.45213610       3.64320633       2.32765815
Si       8.92340862       5.20595086       3.50311694
Si       6.98258276       5.12492312       3.50311694
Si       8.02316777       3.48463249       3.50311694
Si       8.62935742       6.38356822       9.67172757
Si       6.10976181       4.28145863       9.67172757
Si       9.19003992       3.15047963       9.67172757
Si      10.72391222       3.69532238      10.75078777
Si       7.39057360       7.43951922      10.75078777
Si       5.81467333       2.68066488      10.75078777
Si       8.70840220       8.35911039       9.66664931
Si       4.35936972       3.36214234       9.66664931
Si      10.86138724       2.09425375       9.66664931
Si       4.56169253       1.32500219       2.29894784
Si       4.54805416       3.28804052       2.29894784
Si       2.85483229       2.29471019       2.29894784
24
Lattice="7.974995434078781 -1.1699497198109044e-11 1.6265886245720266e-14 3.9874977170495214 6.906548640971268 -3.795387035219914e-14 3.98749771704274 2.3021828803199442 13.443839274789774" Properties=species:S:1:pos:R:3 unique_starting_index=24 config_type=initial n_minim_iter=11 stress="-0.0004056759222630554 2.6146705657953957e-15 1.6677839405308515e-14 2.6146705657953957e-15 -0.00040567592228380123 5.503333163363297e-15 1.6677839405308515e-14 5.503333163363297e-15 0.0007505785716620713" pbc="T T T"
Si       8.84910635       3.83031370      13.63552030
Si       8.20828793       5.74839405      13.63552030
Si       6.86759083       4.23438884      13.63552030
Si       9.07755581       4.77493954      10.72064887
Si       7.27599323       5.47392417      10.72064887
Si       7.57143607       3.56423289      10.72064887
Si       9.56798682       3.76323685       2.32519789
Si       7.90693795       6.40450123       2.32519789
Si       6.45006034       3.64535852       2.32519789
Si       8.92274437       5.20366671       3.50294280
Si       6.98211033       5.12548995       3.50294280
Si       8.02013041       3.48393994       3.50294280
Si       8.62909685       6.38241363       9.67305650
Si       6.10810930       4.28181027       9.67305650
Si       9.18777895       3.14887269       9.67305650
Si      10.72207345       3.69535845      10.74891594
Si       7.38867905       7.43790877      10.74891594
Si       5.81423261       2.67982938      10.74891594
Si       8.70697041       8.35671622       9.66422377
Si       4.35937633       3.36209945       9.66422377
Si      10.85863837       2.09428092       9.66422377
Si       4.56315155       1.32522676       2.30145352
Si       4.54573883       3.28919178       2.30145352
Si       2.85360158       2.29212941       2.30145352
24
Lattice="7.974687937555569 -1.190461863643462e-11 1.6276172196954737e-14 3.987343968788092 6.90628234117049 -3.7960642793222985e-14 3.9873439687811927 2.302094113719617 13.441953089699833" Properties=species:S:1:pos:R:3 unique_starting_index=24 config_type=initial n_minim_iter=12 stress="-0.0008301338687140427 -1.690817556643616e-15 1.6731704286826377e-14 -1.690817556643616e-15 -0.0008301338687321344 4.374799222477347e-15 1.6731704286826377e-14 4.374799222477347e-15 0.0016160184788389317" pbc="T T T"
Si       8.85543737       3.83845815      13.63466680
Si       8.19745413       5.74980465      13.63466680
Si       6.87117112       4.22430120      13.63466680
Si       9.07773667       4.77416491      10.72033479
Si       7.27595865       5.47446811      10.72033479
Si       7.57036730       3.56393098      10.72033479
Si       9.56549903       3.76109754       2.32258366
Si       7.90941955       6.40341639       2.32258366
Si       6.44914404       3.64805007       2.32258366
Si       8.92354768       5.20175571       3.50207157
Si       6.98274865       5.12714113       3.50207157
Si       8.01776629       3.48366716       3.50207157
Si       8.62973942       6.38147763       9.67276725
Si       6.10798363       4.28283475       9.67276725
Si       9.18633958       3.14825162       9.67276725
Si      10.72199354       3.69585534      10.74616642
Si       7.38767370       7.43759112      10.74616642
Si       5.81439538       2.67911754      10.74616642
Si       8.70509934       8.35664846       9.66084539
Si       4.35975555       3.36051295       9.66084539
Si      10.85920772       2.09540259       9.66084539
Si       4.56414184       1.32613856       2.30374479
Si       4.54414655       3.28959350       2.30374479
Si       2.85374233       2.29054960       2.30374479
24
Lattice="7.974719211406995 -1.2130621365884152e-11 1.627316951947224e-14 3.9873596057140013 6.9063094251201855 -3.79746403050525e-14 3.9873596057069713 2.3021031417027733 13.438019451814915" Properties=species:S:1:pos:R:3 unique_starting_index=24 config_type=initial n_minim_iter=13 stress="-0.0008765257554537665 -2.939775760791869e-15 1.967189633567675e-14 -2.939775760791869e-15 -0.0008765257554705506 1.7416994759850967e-15 1.967189633567675e-14 1.7416994759850967e-15 0.001985947493841141" pbc="T T T"
Si       8.86310301       3.84780793      13.63245674
Si       8.18558671       5.75176840      13.63245674
Si       6.87546672       4.21304183      13.63245674
Si       9.07811340       4.77280108      10.71808485
Si       7.27701395       5.47547629      10.71808485
Si       7.56902909       3.56434080      10.71808485
Si       9.56321222       3.75785120       2.31979823
Si       7.91343692       6.40305912       2.31979823
Si       6.44750730       3.65170784       2.31979823
Si       8.92505969       5.19920891       3.49964869
Si       6.98426079       5.12972397       3.49964869
Si       8.01483596       3.48368529       3.49964869
Si       8.63063763       6.38098401       9.67024192
Si       6.10802456       4.28385943       9.67024192
Si       9.18549425       3.14777472       9.67024192
Si      10.72431350       3.69617574      10.74195007
Si       7.38629879       7.43944006      10.74195007
Si       5.81354415       2.67700237      10.74195007
Si       8.70420008       8.35527978       9.65631441
Si       4.36145304       3.36041850       9.65631441
Si      10.85850332       2.09691988       9.65631441
Si       4.56351903       1.32628624       2.30637733
Si       4.54436133       3.28898029       2.30637733
Si       2.85419727       2.29104221       2.30637733
24
Lattice="7.976424627628493 -1.2257955153473e-11 1.6274077888096945e-14 3.9882123138248615 6.907786358891968 -3.798494249774421e-14 3.988212313817758 2.3025954529599915 13.429604753183451" Properties=species:S:1:pos:R:3 unique_starting_index=24 config_type=initial n_minim_iter=14 stress="-0.0005124971737550416 -2.042873167829093e-15 1.9197411378631972e-14 -2.042873167829093e-15 -0.0005124971737655251 4.3748029676759395e-15 1.9197411378631972e-14 4.3748029676759395e-15 0.0014203036458109318" pbc="T T T"
Si       8.86965211       3.85378290      13.62590881
Si       8.18054851       5.75445260      13.62590881
Si       6.87907207       4.20733653      13.62590881
Si       9.07972080       4.77354540      10.71132361
Si       7.27897647       5.47649617      10.71132361
Si       7.57057542       3.56553046      10.71132361
Si       9.56344519       3.75630889       2.31729407
Si       7.91806694       6.40403204       2.31729407
Si       6.44776056       3.65523110       2.31729407
Si       8.92826210       5.19874668       3.49599185
Si       6.98647071       5.13272845       3.49599185
Si       8.01453987       3.48409689       3.49599185
Si       8.63204930       6.38260860       9.66464354
Si       6.10932262       4.28426968       9.66464354
Si       9.18790077       3.14869375       9.66464354
Si      10.72664682       3.69794573      10.73466669
Si       7.38701010       7.44057578      10.73466669
Si       5.81561576       2.67705052      10.73466669
Si       8.70601231       8.35747723       9.64892963
Si       4.36205471       3.36088921       9.64892963
Si      10.86120567       2.09720559       9.64892963
Si       4.56335050       1.32596818       2.30694935
Si       4.54642645       3.28899337       2.30694935
Si       2.85485879       2.29282412       2.30694935
24
Lattice="7.978005322113738 -1.2340493024270828e-11 1.6279528669924e-14 3.9890026610675555 6.9091552804717695 -3.798783524834377e-14 3.9890026610604052 2.30305176015323 13.42424109760031" Properties=species:S:1:pos:R:3 unique_starting_index=24 config_type=initial n_minim_iter=15 stress="-0.00011940386346974965 -3.3880451577598985e-15 1.6338367182889317e-14 -3.3880451577598985e-15 -0.0001194038634774532 5.6954816114281e-15 1.6338367182889317e-14 5.6954816114281e-15 0.0006650683978602778" pbc="T T T"
Si       8.87437854       3.85792783      13.62250134
Si       8.17775707       5.75647335      13.62250134
Si       6.88187915       4.20390870      13.62250134
Si       9.08136572       4.77538721      10.70685396
Si       7.27972036       5.47699981      10.70685396
Si       7.57292870       3.56592286      10.70685396
Si       9.56364816       3.75567435       2.31517339
Si       7.92167637       6.40452509       2.31517339
Si       6.44869024       3.65811044       2.31517339
Si       8.93058740       5.19826095       3.49372861
Si       6.98889011       5.13498508       3.49372861
Si       8.01453727       3.48506384       3.49372861
Si       8.63364623       6.38476783       9.66066087
Si       6.10981560       4.28457305       9.66066087
Si       9.19055294       3.14896900       9.66066087
Si      10.72878771       3.69882767      10.72939227
Si       7.38833727       7.44198887      10.72939227
Si       5.81688980       2.67749333      10.72939227
Si       8.70753004       8.35935414       9.64498219
Si       4.36283178       3.36126514       9.64498219
Si      10.86365295       2.09769059       9.64498219
Si       4.56320912       1.32651662       2.30745072
Si       4.54760287       3.28859671       2.30745072
Si       2.85619479       2.29404126       2.30745072
24
Lattice="7.9792708001933255 -1.2398477424832523e-11 1.6290689789430792e-14 3.989635400107399 6.9102512166365955 -3.798245124514169e-14 3.989635400100216 2.303417072208153 13.416916025408756" Properties=species:S:1:pos:R:3 unique_starting_index=24 config_type=initial n_minim_iter=16 stress="0.0002944604540247385 -2.6202245332396133e-15 1.3590958596064996e-14 -2.6202245332396133e-15 0.0002944604540197465 5.966866914966253e-15 1.3590958596064996e-14 5.966866914966253e-15 -0.00018409872183360808" pbc="T T T"
Si       8.87755109       3.86118766      13.61786222
Si       8.17587865       5.75759094      13.61786222
Si       6.88438146       4.20172314      13.61786222
Si       9.08276977       4.77630614      10.69966894
Si       7.28075347       5.47775629      10.69966894
Si       7.57428797       3.56643932      10.69966894
Si       9.56375576       3.75496471       2.31172729
Si       7.92476810       6.40497309       2.31172729
Si       6.44928735       3.66056395       2.31172729
Si       8.93246698       5.19787901       3.49176190
Si       6.99081205       5.13680382       3.49176190
Si       8.01453218       3.48581892       3.49176190
Si       8.63465538       6.38555390       9.65488119
Si       6.11116122       4.28505396       9.65488119
Si       9.19199461       3.14989388       9.65488119
Si      10.73034231       3.70020510      10.72301125
Si       7.38889803       7.44264648      10.72301125
Si       5.81857087       2.67765016      10.72301125
Si       8.70918818       8.36065876       9.64049092
Si       4.36340383       3.36204884       9.64049092
Si      10.86521919       2.09779415       9.64049092
Si       4.56346858       1.32697037       2.30724640
Si       4.54834567       3.28859454       2.30724640
Si       2.85709076       2.29468563       2.30724640
24
Lattice="7.9801068592270195 -1.2448769871845412e-11 1.6287299913630443e-14 3.9900534296242895 6.910975264998812 -3.801240428887396e-14 3.990053429617077 2.303658421662208 13.406619028695687" Properties=species:S:1:pos:R:3 unique_starting_index=24 config_type=initial n_minim_iter=17 stress="0.0005226361233057387 -2.45493925682375e-15 1.6083198735782053e-14 -2.45493925682375e-15 0.0005226361232992665 3.962621242320268e-15 1.6083198735782053e-14 3.962621242320268e-15 -0.001099704430001229" pbc="T T T"
Si       8.87968152       3.86375812      13.61031285
Si       8.17425948       5.75815072      13.61031285
Si       6.88637839       4.20004101      13.61031285
Si       9.08343270       4.77670550      10.69063816
Si       7.28174826       5.47813073      10.69063816
Si       7.57513841       3.56711362      10.69063816
Si       9.56307967       3.75433011       2.30826402
Si       7.92732784       6.40470488       2.30826402
Si       6.44991187       3.66291486       2.30826402
Si       8.93389346       5.19762550       3.48859051
Si       6.99199047       5.13816594       3.48859051
Si       8.01443545       3.48615840       3.48859051
Si       8.63565529       6.38668861       9.64577574
Si       6.11135070       4.28535255       9.64577574
Si       9.19331340       3.14990868       9.64577574
Si      10.73121381       3.70160775      10.71493536
Si       7.38891967       7.44269990      10.71493536
Si       5.82018590       2.67764219      10.71493536
Si       8.70967750       8.36150112       9.63396049
Si       4.36410179       3.36205142       9.63396049
Si      10.86654009       2.09839731       9.63396049
Si       4.56425909       1.32672094       2.30624745
Si       4.54900249       3.28940385       2.30624745
Si       2.85689752       2.29484979       2.30624745
24
Lattice="7.978839918015258 -1.2505305144773773e-11 1.6280627861983703e-14 3.9894199590184596 6.9098780617242985 -3.801648355955268e-14 3.9894199590112134 2.3032926872373523 13.40981647739195" Properties=species:S:1:pos:R:3 unique_starting_index=24 config_type=initial n_minim_iter=18 stress="0.0001223678635572442 -8.268247483276365e-16 1.3971607561080595e-14 -8.268247483276365e-16 0.00012236786354973822 3.5451134103726124e-15 1.3971607561080595e-14 3.5451134103726124e-15 -0.0003952747219077881" pbc="T T T"
Si       8.87953639       3.86445229      13.61546389
Si       8.17119699       5.75767795      13.61546389
Si       6.88578517       4.19762520      13.61546389
Si       9.08212044       4.77661404      10.69286025
Si       7.27994971       5.47704000      10.69286025
Si       7.57444840       3.56610139      10.69286025
Si       9.56157041       3.75260327       2.30858177
Si       7.92704407       6.40426125       2.30858177
Si       6.44790407       3.66289092       2.30858177
Si       8.93315713       5.19631223       3.48853856
Si       6.99096207       5.13818490       3.48853856
Si       8.01239935       3.48525831       3.48853856
Si       8.63359730       6.38544373       9.64693525
Si       6.11092391       4.28419272       9.64693525
Si       9.19199736       3.15011898       9.64693525
Si      10.72937317       3.70079690      10.71785375
Si       7.38800833       7.44151128      10.71785375
Si       5.81913707       2.67744726      10.71785375
Si       8.70833835       8.36003460       9.63623598
Si       4.36350753       3.36162493       9.63623598
Si      10.86467269       2.09809590       9.63623598
Si       4.56450802       1.32699130       2.30713708
Si       4.54737694       3.28948425       2.30713708
Si       2.85637373       2.29340183       2.30713708
24
Lattice="7.978483964571435 -1.2568364306491753e-11 1.6269092924215605e-14 3.9892419822966025 6.909569796999351 -3.802645418327673e-14 3.989241982289321 2.3031899323290164 13.412789938081414" Properties=species:S:1:pos:R:3 unique_starting_index=24 config_type=initial n_minim_iter=19 stress="-0.00015174979055405293 -4.805488625170994e-16 1.4856230771530723e-14 -4.805488625170994e-16 -0.00015174979056316272 3.712840085967519e-15 1.4856230771530723e-14 3.712840085967519e-15 0.0002555943554063333" pbc="T T T"
Si       8.88053345       3.86555653      13.62020156
Si       8.16903025       5.75798931      13.62020156
Si       6.88588699       4.19559307      13.62020156
Si       9.08167327       4.77661204      10.69502022
Si       7.27946313       5.47665374      10.69502022
Si       7.57431430       3.56587313      10.69502022
Si       9.56102005       3.75123346       2.30872748
Si       7.92779364       6.40446952       2.30872748
Si       6.44663701       3.66343593       2.30872748
Si       8.93281385       5.19532294       3.48844658
Si       6.99127856       5.13838226       3.48844658
Si       8.01135828       3.48543371       3.48844658
Si       8.63186109       6.38506517       9.64787005
Si       6.11140795       4.28287840       9.64787005
Si       9.19218166       3.15119534       9.64787005
Si      10.72877257       3.70019864      10.72043501
Si       7.38811483       7.44129028      10.72043501
Si       5.81856330       2.67764999      10.72043501
Si       8.70794535       8.35971456       9.63847982
Si       4.36326928       3.36144461       9.63847982
Si      10.86423607       2.09797974       9.63847982
Si       4.56549448       1.32735600       2.30826525
Si       4.54621191       3.29015620       2.30826525
Si       2.85601836       2.29205691       2.30826525
24
Lattice="7.977189050313352 -1.2637774980726294e-11 1.6261813820434836e-14 3.9885945251676196 6.908448368356092 -3.802847202133742e-14 3.988594525160298 2.3028161227812407 13.41218925930379" Properties=species:S:1:pos:R:3 unique_starting_index=24 config_type=initial n_minim_iter=20 stress="-0.00028392210033642134 -2.5932264944845405e-15 1.4982239431528322e-14 -2.5932264944845405e-15 -0.0002839221003451163 4.252595362234726e-15 1.4982239431528322e-14 4.252595362234726e-15 0.0005258776763815341" pbc="T T T"
Si       8.88042018       3.86658306      13.62120789
Si       8.16560806       5.75737794      13.62120789
Si       6.88553772       4.19293505      13.62120789
Si       9.08025601       4.77709458      10.69418647
Si       7.27716404       5.47518509      10.69418647
Si       7.57414591       3.56461638      10.69418647
Si       9.55888505       3.74885791       2.30761068
Si       7.92832859       6.40380833       2.30761068
Si       6.44435232       3.66422981       2.30761068
Si       8.93217457       5.19394600       3.48709368
Si       6.99020084       5.13851709       3.48709368
Si       8.00919055       3.48443296       3.48709368
Si       8.62842331       6.38360548       9.64517933
Si       6.11180114       4.28063104       9.64517933
Si       9.19134151       3.15265953       9.64517933
Si      10.72676558       3.69963301      10.72083816
Si       7.38701835       7.43983499      10.72083816
Si       5.81778203       2.67742805      10.72083816
Si       8.70665429       8.35815772       9.63852649
Si       4.36267324       3.36110493       9.63852649
Si      10.86223843       2.09763339       9.63852649
Si       4.56591944       1.32796057       2.31000752
Si       4.54418094       3.29022194       2.31000752
Si       2.85568200       2.29026517       2.31000752
24
Lattice="7.976359454257495 -1.2682623244229256e-11 1.624744555695909e-14 3.988179727139729 6.90772991709682 -3.8047561111348755e-14 3.9881797271323824 2.302576639028134 13.41131606056719" Properties=species:S:1:pos:R:3 unique_starting_index=24 config_type=initial n_minim_iter=21 stress="-0.00022946270918479216 -7.7879269468624e-16 1.6820799127110933e-14 -7.7879269468624e-16 -0.00022946270919574197 4.299461812348705e-15 1.6820799127110933e-14 4.299461812348705e-15 0.0004822898829906202" pbc="T T T"
Si       8.88027961       3.86707355      13.62077977
Si       8.16359438       5.75701096      13.62077977
Si       6.88520319       4.19137464      13.62077977
Si       9.07935314       4.77731032      10.69339127
Si       7.27576944       5.47429531      10.69339127
Si       7.57395459       3.56385352      10.69339127
Si       9.55780661       3.74789775       2.30694006
Si       7.92804014       6.40335446       2.30694006
Si       6.44323041       3.66420694       2.30694006
Si       8.93200657       5.19255011       3.48628842
Si       6.98983452       5.13906954       3.48628842
Si       8.00723608       3.48383949       3.48628842
Si       8.62626102       6.38272388       9.64329003
Si       6.11198658       4.27919924       9.64329003
Si       9.19082957       3.15353603       9.64329003
Si      10.72556950       3.69934770      10.72061901
Si       7.38620428       7.43894181      10.72061901
Si       5.81730339       2.67716964      10.72061901
Si       8.70588517       8.35718699       9.63822350
Si       4.36223929       3.36092422       9.63822350
Si      10.86095271       2.09734793       9.63822350
Si       4.56643780       1.32813371       2.31105400
Si       4.54294223       3.29058428       2.31105400
Si       2.85515797       2.28901124       2.31105400
