8
Lattice="6.832304842789005 0.0 0.0 0.0 2.6238343493874123 -2.074952887964637e-12 0.0 5.404946621722791e-12 6.834701975615837" Properties=species:S:1:pos:R:3 unique_starting_index=2 config_type=initial n_minim_iter=6 energy=-1301.9682079064137 free_energy=-1301.9682079064137 pbc="T T T"
Si       3.41710660       0.65441797       5.02092264
Si       3.41710660       0.65441797       1.81377933
Si       5.06161820       1.96510856       3.41735099
Si       1.77259499       1.96510856       3.41735099
Si       6.83325902       1.96941638       1.60357165
Si       0.00095418       1.96941638       5.23113032
Si       5.18874742       0.65872579       6.83470198
Si       1.64546578       0.65872579      -0.00000000
