22
Lattice="9.859134478599723 -0.1012435320592768 -0.6397550808125958 -4.242693087701626 8.900131363270239 0.6397550808125819 -3.347480112481038 -4.055227809166796 8.36490130220479" Properties=species:S:1:pos:R:3 unique_starting_index=6 config_type=initial n_minim_iter=1 energy=-3589.7005201133825 free_energy=-3589.7005201133825 pbc="T T T"
Si      -3.59049132       6.41381963       6.96619740
Si       2.11779236       0.71818946       5.83764934
Si       5.74440797       2.63567456      -0.84922351
Si       0.12647914      -0.19116934       4.94095427
Si       6.27146433      -1.93315190       1.88749687
Si      -0.26084282       4.28846288       2.03845898
Si       2.04231074       4.77789782       3.42394702
Si      -3.37527530       2.26491703       9.21412481
Si      -0.71971429       6.06731661       2.70964946
Si       0.78909604       6.27232956       3.87114450
Si       1.64916532       4.16375433       1.56584534
Si       1.93077214       5.93505973       0.85017569
Si       2.00963206      -0.69872072       4.49375680
Si       2.45890875      -2.15360538       5.65525184
Si       1.22304582       0.19484368       7.51472561
Si      -0.26506073      -0.80633768       6.79905595
Si      -2.10435000       2.17472316       1.81270304
Si       3.41981575       3.17756512       5.42101225
Si      -1.90505984       0.38453386       2.94388905
Si      -4.73161784       3.85174146       7.19195334
Si       2.80822069       4.39944392      -0.00000000
Si       3.25582718      -2.07823567       3.86257311
22
Lattice="9.825560179051152 -0.08914694293502823 -0.6215303549527663 -4.2175855020005155 8.874770562831776 0.6215303549527517 -3.3278848353700785 -4.058401411462595 8.330092466333749" Properties=species:S:1:pos:R:3 unique_starting_index=6 config_type=initial n_minim_iter=2 stress="0.0015856100201739845 -0.00405617725581222 -0.0006278701568984948 -0.00405617725581222 -0.0021798113377771485 0.00040077746244158297 -0.0006278701568984948 0.00040077746244158297 0.004174719420465481" pbc="T T T"
Si      -3.56018869       6.38845595       6.92632773
Si       2.12055560       0.71311247       5.81668469
Si       5.72686722       2.63697235      -0.83990960
Si       0.13424618      -0.19556276       4.92162910
Si       6.25171684      -1.92386001       1.89187742
Si      -0.25190407       4.27673603       2.02529508
Si       2.04618419       4.76665542       3.40846336
Si      -3.34711791       2.24637943       9.17000206
Si      -0.70609521       6.05019707       2.69096210
Si       0.80020276       6.25499769       3.85045368
Si       1.65099093       4.15495039       1.55817402
Si       1.93223603       5.92309532       0.84389994
Si       2.00883030      -0.69911694       4.47963878
Si       2.45724184      -2.15163338       5.63913036
Si       1.23117242       0.18796069       7.48619252
Si      -0.25421970      -0.81156196       6.77191844
Si      -2.09211222       2.16571684       1.79985696
Si       3.42065801       3.16888798       5.40136463
Si      -1.89368980       0.37847101       2.92872783
Si      -4.70023649       3.83051555       7.15176586
Si       2.80398734       4.39281181      -0.00000000
Si       3.24883767      -2.07377417       3.85428105
22
Lattice="9.828245315318572 -0.010683558237876901 -0.6229208127795179 -4.1475455480150245 8.910240515476485 0.6229208127795026 -3.365419423939729 -4.114619949979741 8.29013903524481" Properties=species:S:1:pos:R:3 unique_starting_index=6 config_type=initial n_minim_iter=3 stress="0.006475439430246124 0.007833462976021957 0.009807729045099153 0.007833462976021957 0.013747382182336192 -0.006260397497536892 0.009807729045099153 -0.006260397497536892 0.0014752385072479375" pbc="T T T"
Si      -3.50953624       6.41004026       6.90291338
Si       2.11852456       0.74066983       5.78421176
Si       5.74396305       2.69716677      -0.84758726
Si       0.14365944      -0.19250093       4.89965258
Si       6.24271848      -1.89185531       1.88300646
Si      -0.22114612       4.31101925       2.01014647
Si       2.08018879       4.83419762       3.39048646
Si      -3.33725059       2.23101057       9.13772629
Si      -0.66120967       6.09284458       2.66412038
Si       0.86321741       6.30383080       3.83556517
Si       1.68487556       4.20143235       1.55813340
Si       1.97410524       5.98861340       0.84034738
Si       1.98905970      -0.67761831       4.45457386
Si       2.43949324      -2.14918304       5.62601865
Si       1.23543857       0.19730395       7.44979165
Si      -0.26385869      -0.81747567       6.73200563
Si      -2.07668080       2.16804362       1.79138267
Si       3.44318287       3.22251057       5.37316669
Si      -1.89206920       0.36525971       2.91697234
Si      -4.67211750       3.82474369       7.12167717
Si       2.84034988       4.44977848      -0.00000000
Si       3.23141295      -2.06265175       3.83360911
22
Lattice="9.788006796324177 -0.031014579424411153 -0.7088209021898202 -4.149045773073646 8.865182351309233 0.708820902189804 -3.4169566618960197 -4.035707302352826 8.267160320259112" Properties=species:S:1:pos:R:3 unique_starting_index=6 config_type=initial n_minim_iter=4 stress="-0.008165872590687823 0.0035472693337446036 -0.0028798577260551496 0.0035472693337446036 -0.004872879491698008 0.0018382496109480516 -0.0028798577260551496 0.0018382496109480516 -0.010430138759353006" pbc="T T T"
Si      -3.56234219       6.41392188       6.95321618
Si       2.04941144       0.76859492       5.74491117
Si       5.71388331       2.65936924      -0.88793344
Si       0.11024195      -0.16018808       4.88169182
Si       6.20537002      -1.88420601       1.81342825
Si      -0.24843056       4.29861017       2.02276503
Si       2.03029160       4.83101390       3.38546849
Si      -3.41040813       2.26672590       9.15509376
Si      -0.69291519       6.07224422       2.68606482
Si       0.82150263       6.27926471       3.85120637
Si       1.65754200       4.18453443       1.56603417
Si       1.94128330       5.95187779       0.85429546
Si       1.93280234      -0.64688591       4.41595395
Si       2.38261894      -2.10770207       5.58109549
Si       1.16439877       0.23097906       7.41286485
Si      -0.31921535      -0.77047032       6.70112615
Si      -2.08728472       2.17011148       1.81473635
Si       3.37172401       3.22680864       5.34013716
Si      -1.90962248       0.38116495       2.92702316
Si      -4.71881488       3.84985046       7.16124487
Si       2.81948051       4.41708389      -0.00000000
Si       3.18552507      -2.03336094       3.77916971
22
Lattice="9.75667203905049 -0.25490932271615635 -0.6764689707930203 -4.3389376957706585 8.742496652136476 0.6764689707930044 -3.2790733348823458 -3.879823858751246 8.3612130219467" Properties=species:S:1:pos:R:3 unique_starting_index=6 config_type=initial n_minim_iter=5 stress="-0.015787043002806526 -0.01581366952134228 0.024707865918694605 -0.01581366952134228 -0.030467153167593953 -0.015771343320720773 0.024707865918694605 -0.015771343320720773 -0.005692983852506968" pbc="T T T"
Si      -3.63701528       6.31496934       7.06287346
Si       1.99213959       0.70787347       5.78696545
Si       5.58411857       2.41147788      -0.91270715
Si       0.19777185      -0.12923382       4.95174883
Si       6.28095344      -2.02973065       1.89777860
Si      -0.35875573       4.22241480       1.97480853
Si       1.93817385       4.73274342       3.40946419
Si      -3.44274226       2.20053948       9.27392016
Si      -0.84232310       5.95199790       2.68676436
Si       0.69747354       6.08625710       3.91244692
Si       1.58314667       4.04749259       1.58871270
Si       1.78462944       5.74860902       0.84326993
Si       1.94783587      -0.68476283       4.44876610
Si       2.47433571      -2.13796521       5.67444866
Si       1.18386045       0.15918962       7.51794308
Si      -0.27431455      -0.73976426       6.77250032
Si      -2.12761074       2.17479199       1.81184680
Si       3.29549632       3.05262972       5.39768006
Si      -1.89763552       0.39457362       2.96353295
Si      -4.74960008       3.84844095       7.22583519
Si       2.70886717       4.24379367      -0.00000000
Si       3.23879935      -2.06736659       3.84237202
22
Lattice="9.736579889668585 -0.3217738896365641 -0.6915641090235943 -4.391128265903629 8.696120913161943 0.6915641090235788 -3.2556559154568117 -3.815081853757665 8.380253117306188" Properties=species:S:1:pos:R:3 unique_starting_index=6 config_type=initial n_minim_iter=6 stress="-0.031032681476807045 -0.0233314302768493 0.02711660394782028 -0.0233314302768493 -0.05269166241756387 -0.017308871270405393 0.02711660394782028 -0.017308871270405393 -0.01613994114798304" pbc="T T T"
Si      -3.66514916       6.28868661       7.11894630
Si       1.94484715       0.70261213       5.78144355
Si       5.53097952       2.32426177      -0.93468851
Si       0.22237313      -0.10349133       4.96865457
Si       6.29941730      -2.07696507       1.90724545
Si      -0.39952387       4.20419669       1.95287092
Si       1.90230080       4.71739780       3.41159854
Si      -3.47606205       2.18036212       9.31494162
Si      -0.89598623       5.91728829       2.69629592
Si       0.64843326       6.02714431       3.93900516
Si       1.55804548       4.00338387       1.59892500
Si       1.73100966       5.68358704       0.84069570
Si       1.93828163      -0.68939042       4.44124796
Si       2.48886275      -2.13651182       5.68395719
Si       1.17087432       0.14792031       7.53955741
Si      -0.28033805      -0.71636087       6.78132811
Si      -2.14262466       2.17900542       1.81547507
Si       3.25212485       3.00599479       5.40179767
Si      -1.89825835       0.40034132       2.97845544
Si      -4.76823032       3.85496272       7.25634215
Si       2.67272581       4.18717352      -0.00000000
Si       3.24046199      -2.06842787       3.84434450
22
Lattice="9.783492521704241 -0.24622816982469325 -0.6685795718577573 -4.342355300784984 8.770479158837471 0.668579571857742 -3.2841246671052127 -3.9024005356987184 8.379149605279341" Properties=species:S:1:pos:R:3 unique_starting_index=6 config_type=initial n_minim_iter=7 stress="-0.030346619830738004 -0.028545223134951947 0.01497713685319907 -0.028545223134951947 -0.056845657244786345 -0.009560095884061705 0.01497713685319907 -0.009560095884061705 -0.012125846571538377" pbc="T T T"
Si      -3.58497455       6.32030843       7.16876016
Si       1.91221963       0.74613104       5.75386153
Si       5.51961524       2.35138864      -0.93176404
Si       0.27811201      -0.05345242       4.99172567
Si       6.37107186      -2.10001073       1.95670850
Si      -0.38429184       4.27727218       1.87896901
Si       1.99143859       4.85160841       3.38742393
Si      -3.47514073       2.09415629       9.31091365
Si      -0.85760603       5.99856366       2.70218865
Si       0.69118050       6.10506556       3.95038360
Si       1.62552962       4.09368597       1.61059899
Si       1.75636457       5.74500590       0.83239874
Si       1.96249428      -0.70512895       4.42876600
Si       2.51795635      -2.15479934       5.67696095
Si       1.18744088       0.10945824       7.54675087
Si      -0.25530997      -0.70444918       6.76855061
Si      -2.14016129       2.20661366       1.79178492
Si       3.28613868       3.06059333       5.38791612
Si      -1.89152372       0.36686188       2.99123348
Si      -4.72392109       3.85586022       7.25594425
Si       2.72056861       4.26212550      -0.00000000
Si       3.24968393      -2.07431435       3.85528501
22
Lattice="9.845173998074982 -0.21226671886080892 -0.5749104092166502 -4.33751939704014 8.840725857790636 0.5749104092166348 -3.2384280657451705 -4.0049027717948995 8.41286916826815" Properties=species:S:1:pos:R:3 unique_starting_index=6 config_type=initial n_minim_iter=8 stress="0.005158005576456568 -0.02451569674028851 0.007832370612196311 -0.02451569674028851 -0.01760035094719868 -0.004999501225503313 0.007832370612196311 -0.004999501225503313 0.020806682941183745" pbc="T T T"
Si      -3.50324335       6.33436838       7.14150844
Si       1.96683497       0.71837290       5.78620299
Si       5.55380301       2.36792759      -0.87268416
Si       0.32312865      -0.04721503       5.00552648
Si       6.43027787      -2.13069916       2.05175577
Si      -0.35541641       4.32507063       1.84627113
Si       2.09035745       4.89677284       3.40734268
Si      -3.42883605       2.02962736       9.28555333
Si      -0.78561888       6.02232426       2.68766936
Si       0.73832069       6.15193151       3.90248869
Si       1.65404639       4.12284249       1.61973171
Si       1.79370521       5.82047880       0.82404898
Si       2.03085397      -0.74514119       4.51038047
Si       2.55489728      -2.18200182       5.72519981
Si       1.28587437       0.07260128       7.58882019
Si      -0.19517290      -0.76880982       6.79313745
Si      -2.13869317       2.22136302       1.75439385
Si       3.35972088       3.07127193       5.41493738
Si      -1.86712039       0.33559846       2.99793179
Si      -4.66062824       3.83114606       7.23338572
Si       2.75382730       4.31422957      -0.00000000
Si       3.30337297      -2.10858474       3.91897938
22
Lattice="9.847563195190808 -0.07952270008091271 -0.5775134405579435 -4.21811944087264 8.898780429117068 0.5775134405579277 -3.3015167867172552 -4.098901516770441 8.343460899409253" Properties=species:S:1:pos:R:3 unique_starting_index=6 config_type=initial n_minim_iter=9 stress="0.02247579095468796 -0.0043643332341499865 -0.0013420333233649057 -0.0043643332341499865 0.01842430293118991 0.0008566368443257084 -0.0013420333233649057 0.0008566368443257084 0.02526160039029992" pbc="T T T"
Si      -3.44561761       6.40016419       7.10014991
Si       1.95756364       0.75598092       5.77042731
Si       5.58495692       2.47378547      -0.82889737
Si       0.28789233      -0.01619798       4.96681431
Si       6.40759419      -2.08452986       1.99552014
Si      -0.26368630       4.36909719       1.82082442
Si       2.19202707       4.97467018       3.37664659
Si      -3.40902239       2.00845478       9.17235827
Si      -0.70077427       6.08439220       2.67673605
Si       0.81661445       6.25426843       3.86436707
Si       1.69183042       4.20342071       1.61150232
Si       1.87494853       5.93246205       0.83555485
Si       2.02762728      -0.72503781       4.47909383
Si       2.51238647      -2.17291038       5.66672484
Si       1.29015559       0.09944135       7.50790605
Si      -0.20108061      -0.79461168       6.73195858
Si      -2.12033648       2.22646774       1.73152710
Si       3.39151731       3.16842291       5.35825570
Si      -1.85547487       0.31134294       2.98520519
Si      -4.60741522       3.81400155       7.18944724
Si       2.81472188       4.40962887      -0.00000000
Si       3.27302320      -2.08921210       3.88297373
22
Lattice="9.836919787086874 -0.041712208188801954 -0.5870825105870034 -4.179342272226563 8.905045141798741 0.5870825105869873 -3.3236495971679516 -4.115790533805884 8.314145675726987" Properties=species:S:1:pos:R:3 unique_starting_index=6 config_type=initial n_minim_iter=10 stress="-0.0030260576756285054 -0.010859968999225885 -0.0011043603569199105 -0.010859968999225885 -0.013107559700172576 0.0007049271837592349 -0.0011043603569199105 0.0007049271837592349 0.003905998166728315" pbc="T T T"
Si      -3.40961123       6.43242913       7.10148694
Si       1.92073668       0.75525645       5.74786784
Si       5.56238719       2.49719385      -0.80174928
Si       0.26692714       0.01919920       4.96911823
Si       6.38966560      -2.09731740       1.97919532
Si      -0.23293522       4.40471665       1.79974124
Si       2.23896184       4.99774262       3.34502744
Si      -3.40042033       1.98094914       9.11589495
Si      -0.67134816       6.07063694       2.66456594
Si       0.85272635       6.28822329       3.83216237
Si       1.71004656       4.21094996       1.60696071
Si       1.89822236       5.96048258       0.82425123
Si       2.02108961      -0.69487586       4.48198330
Si       2.46538803      -2.16889956       5.64957973
Si       1.28364020       0.11546003       7.48989444
Si      -0.22405329      -0.79180775       6.70718496
Si      -2.12188013       2.22819403       1.71854702
Si       3.38624109       3.20206650       5.32671049
Si      -1.84486979       0.30383262       2.98743518
Si      -4.58855512       3.80270388       7.18268117
Si       2.82878876       4.43166647      -0.00000000
Si       3.25663509      -2.07875137       3.86353158
22
Lattice="9.842697378368603 0.04810962216327786 -0.6098962321938204 -4.1003015821799895 8.948102209578352 0.609896232193803 -3.3852888054160624 -4.169955187511205 8.270687581453323" Properties=species:S:1:pos:R:3 unique_starting_index=6 config_type=initial n_minim_iter=11 stress="-0.008246918488084383 0.0012678031311319483 0.0022249680729911846 0.0012678031311319483 -0.007069994333504235 -0.0014202252623626201 0.0022249680729911846 -0.0014202252623626201 -0.00905617381261716" pbc="T T T"
Si      -3.36979847       6.47042932       7.09075758
Si       1.90679867       0.79424981       5.71194107
Si       5.58420764       2.56787422      -0.80565633
Si       0.25502727       0.03569613       4.94529648
Si       6.37504116      -2.05788589       1.94885028
Si      -0.19782739       4.44572006       1.78982623
Si       2.28211454       5.07260854       3.32539109
Si      -3.40713547       1.97633441       9.07634391
Si      -0.61244039       6.12137732       2.65883585
Si       0.90230921       6.35525145       3.80980861
Si       1.76003041       4.26467949       1.59207914
Si       1.95674688       6.02451025       0.81102788
Si       1.99937328      -0.67584627       4.46087897
Si       2.42497188      -2.14826920       5.61185173
Si       1.25543769       0.14133693       7.45965970
Si      -0.25800101      -0.77801338       6.67860844
Si      -2.10961324       2.23227710       1.71554731
Si       3.40148872       3.27393030       5.29139550
Si      -1.84774423       0.29375423       2.97929208
Si      -4.57261465       3.80444205       7.16503650
Si       2.87119790       4.49810592      -0.00000000
Si       3.22870429      -2.06092278       3.83039567
22
Lattice="9.861691666467877 0.01974211381442288 -0.5780698605153912 -4.1340293247504105 8.953387840233624 0.5780698605153738 -3.3510950996634823 -4.175538248359143 8.301961154370535" Properties=species:S:1:pos:R:3 unique_starting_index=6 config_type=initial n_minim_iter=12 stress="0.005547916118692469 -0.0010855695137235591 -0.004366935197141655 -0.0010855695137235591 0.0045401626664311355 0.002787469969284161 -0.004366935197141655 0.002787469969284161 0.006240849950586085" pbc="T T T"
Si      -3.38227518       6.46064886       7.11207848
Si       1.91586882       0.78996151       5.74902195
Si       5.57364585       2.55637370      -0.80142287
Si       0.27919241       0.02227026       4.97928498
Si       6.42052076      -2.08541479       1.97486934
Si      -0.20097992       4.42998785       1.76795253
Si       2.27922288       5.06021014       3.32267617
Si      -3.37892666       1.95632933       9.10338402
Si      -0.61658196       6.11949376       2.65069539
Si       0.89649067       6.33100625       3.81228617
Si       1.76323999       4.25117006       1.60144512
Si       1.93931643       6.01461063       0.80105380
Si       2.01402500      -0.69691468       4.48967498
Si       2.45920077      -2.15840189       5.65126576
Si       1.28799042       0.11577562       7.50090735
Si      -0.23741236      -0.78637288       6.70051603
Si      -2.11289187       2.23504997       1.70957038
Si       3.41560248       3.24799801       5.31841353
Si      -1.84301461       0.29005518       2.98354762
Si      -4.56825319       3.80233815       7.17046063
Si       2.86383117       4.48656498      -0.00000000
Si       3.25529828      -2.07789806       3.86194564
22
Lattice="9.857583853132564 0.03460125449457235 -0.5942711434371036 -4.118821840178247 8.955917781959759 0.594271143437086 -3.3703012659749083 -4.175515780955821 8.290503736193068" Properties=species:S:1:pos:R:3 unique_starting_index=6 config_type=initial n_minim_iter=13 stress="0.0017897544020610023 6.860270082327455e-05 -0.001228477618721324 6.860270082327455e-05 0.0018534395071718474 0.0007841528018012992 -0.001228477618721324 0.0007841528018012992 0.0017459647345439465" pbc="T T T"
Si      -3.38505742       6.47237983       7.11339676
Si       1.90613494       0.79845681       5.74147765
Si       5.57980062       2.56966739      -0.80692917
Si       0.26791648       0.02448254       4.96979219
Si       6.40901059      -2.07578567       1.95475494
Si      -0.19316662       4.43495556       1.77137812
Si       2.27787040       5.06832524       3.32071154
Si      -3.38866601       1.96753136       9.09743291
Si      -0.61449616       6.12165151       2.65209270
Si       0.90483012       6.34666808       3.81168898
Si       1.76206447       4.26062604       1.59044382
Si       1.95574105       6.01989510       0.80713241
Si       2.00551390      -0.68273401       4.47881475
Si       2.44107364      -2.15557905       5.63841103
Si       1.26666251       0.13292094       7.48337133
Si      -0.24754653      -0.78343555       6.70005992
Si      -2.11142688       2.23441209       1.71281461
Si       3.41009579       3.26345283       5.30853418
Si      -1.84588403       0.29158952       2.98196955
Si      -4.57344724       3.80595083       7.17196027
Si       2.86938101       4.49525952      -0.00000000
Si       3.24364129      -2.07045726       3.84811629
22
Lattice="9.857741557685106 0.03185601444725077 -0.5873411355789347 -4.121378314383734 8.954905036542591 0.5873411355789144 -3.363260462614801 -4.177365439555796 8.292113728014618" Properties=species:S:1:pos:R:3 unique_starting_index=6 config_type=initial n_minim_iter=14 stress="0.0012743960204771045 0.0005112869699880954 0.001011554054218095 0.0005112869699880954 0.00174903279185759 -0.0006456877469347191 0.001011554054218095 -0.0006456877469347191 0.0009480348303813271" pbc="T T T"
Si      -3.38085064       6.46657506       7.10854876
Si       1.91179389       0.79531959       5.74173846
Si       5.57923767       2.57117703      -0.80391983
Si       0.26950019       0.01967676       4.97268896
Si       6.41098096      -2.07656843       1.96303413
Si      -0.19571865       4.43346502       1.77090610
Si       2.27748657       5.06213079       3.31942476
Si      -3.38001887       1.96580667       9.09603355
Si      -0.61435337       6.11744502       2.65081353
Si       0.90537600       6.34514583       3.80930533
Si       1.76254071       4.25832389       1.59134005
Si       1.95349305       6.01803903       0.80549232
Si       2.01094412      -0.68472942       4.48280839
Si       2.44423881      -2.15907019       5.64130019
Si       1.27296621       0.12825079       7.48662141
Si      -0.24279441      -0.78582247       6.70077368
Si      -2.11086390       2.23348587       1.71044291
Si       3.41299577       3.25952403       5.31111707
Si      -1.84362780       0.29071621       2.98099666
Si      -4.57004007       3.80320912       7.16901195
Si       2.86818162       4.49338053      -0.00000000
Si       3.24724055      -2.07275471       3.85238629
22
Lattice="9.859843256335994 0.019582700811050246 -0.5743780264963976 -4.133395709322217 8.951644118922623 0.5743780264963773 -3.3473757944057514 -4.17657305137766 8.300488869731685" Properties=species:S:1:pos:R:3 unique_starting_index=6 config_type=initial n_minim_iter=15 stress="-0.0017080059863569038 1.3276211197197509e-05 0.0005039523261132934 1.3276211197197509e-05 -0.0016956814438019083 -0.00032167914374492325 0.0005039523261132934 -0.00032167914374492325 -0.0017164804846280964" pbc="T T T"
Si      -3.37896182       6.45711598       7.10961049
Si       1.91674378       0.78948165       5.74802005
Si       5.57515280       2.56156758      -0.80154321
Si       0.27900655       0.01489383       4.97933699
Si       6.42158802      -2.08601740       1.97809079
Si      -0.20122648       4.42872733       1.76525640
Si       2.27511483       5.05399803       3.32115187
Si      -3.37113068       1.95884812       9.10203208
Si      -0.61582426       6.10958094       2.65040881
Si       0.89979382       6.33564842       3.80631395
Si       1.75755948       4.24990697       1.59338263
Si       1.94711494       6.01184321       0.80516240
Si       2.02056432      -0.69299893       4.49417492
Si       2.45360962      -2.16292288       5.65008005
Si       1.28591623       0.12064936       7.49532647
Si      -0.23244715      -0.79309199       6.70710623
Si      -2.11233672       2.23324891       1.70566568
Si       3.41547177       3.24818887       5.31837823
Si      -1.83906716       0.28898217       2.98211063
Si      -4.56576765       3.79930490       7.16920121
Si       2.86322377       4.48561341      -0.00000000
Si       3.25623373      -2.07849517       3.86305542
22
Lattice="9.858111469587818 0.01932255792909994 -0.5817477202069224 -4.132902561610316 8.94996377223386 0.5817477202069035 -3.3529685118823482 -4.171637584808785 8.29916908716564" Properties=species:S:1:pos:R:3 unique_starting_index=6 config_type=initial n_minim_iter=16 stress="0.0009794065622205023 -0.00040623532447126877 -0.0005479625057130325 -0.00040623532447126877 0.0006022910984086309 0.0003497713980189982 -0.0005479625057130325 0.0003497713980189982 0.0012387118435400687" pbc="T T T"
Si      -3.38529760       6.45574602       7.11801514
Si       1.91038304       0.79759040       5.74525379
Si       5.57573500       2.56673719      -0.80777694
Si       0.27491661       0.01059769       4.98030794
Si       6.42429655      -2.08369769       1.97216757
Si      -0.20490121       4.42565878       1.76290166
Si       2.26610859       5.05147446       3.31886114
Si      -3.37227941       1.96648817       9.10694602
Si      -0.62078098       6.10544830       2.65372894
Si       0.89906578       6.34067859       3.80826851
Si       1.75444325       4.24926222       1.59055124
Si       1.94945747       6.01025071       0.80744222
Si       2.01984075      -0.68660605       4.49090057
Si       2.44635524      -2.16422333       5.64544014
Si       1.27789278       0.12703914       7.49172687
Si      -0.23731271      -0.79125456       6.70861784
Si      -2.11396579       2.23279039       1.70541766
Si       3.40911091       3.25238190       5.31593199
Si      -1.83817854       0.28991333       2.98323709
Si      -4.57059726       3.80088933       7.17549914
Si       2.86260445       4.48464317      -0.00000000
Si       3.25257148      -2.07615751       3.85871068
22
Lattice="9.862538523331532 0.004626251219256475 -0.5662510452447806 -4.148096752686369 8.947791954261769 0.5662510452447621 -3.33452253822541 -4.171541420786575 8.310807986553902" Properties=species:S:1:pos:R:3 unique_starting_index=6 config_type=initial n_minim_iter=17 stress="0.0005706918941332549 0.000923716977270215 0.0010929311116125546 0.000923716977270215 0.0014281947633585509 -0.0006976317519227346 0.0010929311116125546 -0.0006976317519227346 -1.8928606165051597e-05" pbc="T T T"
Si      -3.38620084       6.43854471       7.12946000
Si       1.91322577       0.80168325       5.75225675
Si       5.57693953       2.56916020      -0.81394669
Si       0.28634843      -0.01176172       4.99223521
Si       6.44968518      -2.09399617       1.99230018
Si      -0.21687165       4.41552180       1.74759903
Si       2.24869327       5.03565808       3.31857277
Si      -3.35214276       1.96869702       9.12475467
Si      -0.62556123       6.08543945       2.65623899
Si       0.89664126       6.34154541       3.80153222
Si       1.74095143       4.23845442       1.58471359
Si       1.95241838       6.00403959       0.81299962
Si       2.04009373      -0.68834410       4.50927576
Si       2.44866469      -2.17688717       5.65456899
Si       1.28945835       0.12720602       7.49780837
Si      -0.22298970      -0.80794645       6.72609439
Si      -2.11890387       2.22964600       1.69270854
Si       3.40893262       3.24692168       5.32510033
Si      -1.82461022       0.28754893       2.98570766
Si      -4.56811859       3.79301073       7.18435048
Si       2.85722088       4.47620911      -0.00000000
Si       3.26400799      -2.08345758       3.87227847
22
Lattice="9.863383873483281 -0.004006797779675161 -0.5628485821267925 -4.15628329136176 8.944924074136429 0.562848582126774 -3.3279839509818285 -4.167621632419036 8.316165508665668" Properties=species:S:1:pos:R:3 unique_starting_index=6 config_type=initial n_minim_iter=18 stress="-0.0001316765567985713 -0.00042161647632770583 -0.0001755044805076404 -0.00042161647632770583 -0.0005230706169403503 0.00011202672968706407 -0.0001755044805076404 0.00011202672968706407 0.0001374466160885114" pbc="T T T"
Si      -3.38834982       6.43174298       7.13731251
Si       1.91115899       0.80308250       5.75381100
Si       5.57497447       2.56635623      -0.81711312
Si       0.29005541      -0.01816309       4.99774046
Si       6.45920847      -2.09999500       1.99950593
Si      -0.22378437       4.41176083       1.74170158
Si       2.24052358       5.02874429       3.31842505
Si      -3.34732020       1.96965388       9.13327863
Si      -0.63063705       6.07693623       2.65950441
Si       0.89187344       6.34014504       3.80123560
Si       1.73543050       4.23283045       1.58342763
Si       1.95031003       5.99834653       0.81462736
Si       2.04736945      -0.68933856       4.51492991
Si       2.44962742      -2.18115141       5.65666109
Si       1.29172068       0.12681656       7.50153815
Si      -0.21922795      -0.81140223       6.73273787
Si      -2.12295472       2.22807612       1.68747940
Si       3.40560696       3.24510663       5.32788799
Si      -1.81831782       0.28768800       2.98827752
Si      -4.56948503       3.78972736       7.19153469
Si       2.85355029       4.47045864      -0.00000000
Si       3.26769996      -2.08581421       3.87665846
22
Lattice="9.866065543418964 -0.0035817766676244844 -0.5609063565529029 -4.157026802440934 8.94753543161192 0.560906356552884 -3.3273158961298286 -4.170184825230348 8.318197252275544" Properties=species:S:1:pos:R:3 unique_starting_index=6 config_type=initial n_minim_iter=19 stress="-0.0007535106500665405 0.0004888741360690879 -0.00017252659166370725 0.0004888741360690879 -0.0002996801103152067 0.00011012590557530776 -0.00017252659166370725 0.00011012590557530776 -0.001065565151685925" pbc="T T T"
Si      -3.38729112       6.43360668       7.13825391
Si       1.91189541       0.80220972       5.75586358
Si       5.57734191       2.56970349      -0.81863917
Si       0.29174452      -0.02196294       4.99957762
Si       6.46145648      -2.10183265       2.00142731
Si      -0.22261509       4.41355394       1.74084970
Si       2.23897198       5.02914979       3.31861963
Si      -3.34461273       1.97064734       9.13683641
Si      -0.62944023       6.07859652       2.65948404
Si       0.89272932       6.34144802       3.80112009
Si       1.73626618       4.23402016       1.58397354
Si       1.95100654       6.00045233       0.81456307
Si       2.04885904      -0.69057685       4.51707716
Si       2.45129756      -2.18193002       5.65871321
Si       1.29400557       0.12577171       7.50363418
Si      -0.21783259      -0.81270652       6.73422371
Si      -2.12537727       2.22617957       1.68410061
Si       3.40692658       3.24984395       5.32889814
Si      -1.81390834       0.28831627       2.98929910
Si      -4.57026082       3.78677966       7.19500299
Si       2.85451937       4.47197683      -0.00000000
Si       3.26937482      -2.08688330       3.87864545
22
Lattice="9.872748409662604 -0.007747351411733439 -0.553741428104072 -4.163618797127552 8.951843368499883 0.5537414281040531 -3.3213218943674008 -4.174111055671399 8.326071613916456" Properties=species:S:1:pos:R:3 unique_starting_index=6 config_type=initial n_minim_iter=20 stress="0.0006470145846237201 0.00021177213532689757 0.0001266482305209641 0.00021177213532689757 0.0008436064175518966 -8.084116738559904e-05 0.0001266482305209641 -8.084116738559904e-05 0.0005118377208039277" pbc="T T T"
Si      -3.38599193       6.43521782       7.14044550
Si       1.91562415       0.79748937       5.76280027
Si       5.58063066       2.57016028      -0.81806869
Si       0.29618930      -0.02725595       5.00492561
Si       6.46828188      -2.10852965       2.00952992
Si      -0.22229867       4.41579240       1.73936753
Si       2.23838449       5.02716912       3.32114600
Si      -3.33958902       1.96989650       9.14414030
Si      -0.62978180       6.07980250       2.65932314
Si       0.89250775       6.34080187       3.80205687
Si       1.73703053       4.23434205       1.58417429
Si       1.95056094       6.00012734       0.81409198
Si       2.05436023      -0.69497609       4.52401473
Si       2.45852925      -2.18565833       5.66674847
Si       1.29989239       0.12130447       7.51197963
Si      -0.21186842      -0.81580393       6.74189732
Si      -2.12989473       2.22347209       1.67816869
Si       3.41054702       3.25322419       5.33442141
Si      -1.80637255       0.28909711       2.99165020
Si      -4.57141271       3.78192390       7.20164434
Si       2.85456481       4.47204801      -0.00000000
Si       3.27571326      -2.09092920       3.88616509
22
Lattice="9.871629289249963 -0.012176878947828486 -0.5534279289190291 -4.167165444614273 8.948963362198505 0.55342792891901 -3.318724756636133 -4.17062496528373 8.327511570806042" Properties=species:S:1:pos:R:3 unique_starting_index=6 config_type=initial n_minim_iter=21 stress="0.00017292957614604225 1.6685552088489603e-05 -8.543249001097001e-05 1.6685552088489603e-05 0.00018841907037859686 5.4532638923174336e-05 -8.543249001097001e-05 5.4532638923174336e-05 0.00016227899835509726" pbc="T T T"
Si      -3.38825466       6.43325007       7.14151083
Si       1.91515451       0.79605735       5.76396232
Si       5.57948817       2.56710358      -0.81845161
Si       0.29616047      -0.02859547       5.00568395
Si       6.46865871      -2.11050197       2.01012131
Si      -0.22408039       4.41351761       1.73942866
Si       2.23511299       5.02275557       3.32182762
Si      -3.33928346       1.97105937       9.14596317
Si      -0.63248623       6.07709084       2.65980192
Si       0.88945114       6.33690312       3.80287749
Si       1.73499905       4.23065877       1.58429123
Si       1.94805516       5.99641906       0.81382258
Si       2.05470789      -0.69590395       4.52463407
Si       2.45980538      -2.18576696       5.66770965
Si       1.30018089       0.12095645       7.51368899
Si      -0.21175693      -0.81571122       6.74322034
Si      -2.13125495       2.22244363       1.67653706
Si       3.40796326       3.25162627       5.33526817
Si      -1.80413701       0.28956684       2.99224340
Si      -4.57272242       3.78086319       7.20440244
Si       2.85223192       4.46839325      -0.00000000
Si       3.27645227      -2.09140092       3.88704182
