8
Lattice="5.34438 0.0 0.0 0.0 5.35473 -3.2788264773991526e-16 0.0 3.2788264773991536e-16 5.35473" Properties=species:S:1:pos:R:3 unique_starting_index=2 config_type=initial n_minim_iter=1 pbc="T T T"
Si       2.76078165       1.74143209       3.47396141
Si       2.58359835       1.74143209       1.88076859
Si       3.46724669       3.61329791       2.58860178
Si       1.87713331       3.61329791       2.76612822
Si       5.25578835       3.61329791       0.79659641
Si       0.08859165       3.61329791       4.55813359
Si       4.54932331       1.74143209       5.26596678
Si       0.79505669       1.74143209       0.08876322
8
Lattice="5.339091400885331 0.0 0.0 0.0 5.378335612490313 -3.2932807462882395e-16 0.0 3.2784643177098745e-16 5.35413854834303" Properties=species:S:1:pos:R:3 unique_starting_index=2 config_type=initial n_minim_iter=2 pbc="T T T"
Si       2.75801660       1.74856537       3.47325803
Si       2.58107480       1.74856537       1.88088052
Si       3.46318675       3.62977822       2.58838506
Si       1.87590465       3.62977822       2.76575349
Si       5.25062050       3.62977025       0.79618875
Si       0.08847090       3.62977025       4.55794980
Si       4.54545035       1.74855739       5.26545433
Si       0.79364105       1.74855739       0.08868422
8
Lattice="4.426003407428145 0.0 0.0 0.0 8.085432940717537 -4.950901152266626e-16 0.0 3.15757354213755e-16 5.156714042734126" Properties=species:S:1:pos:R:3 unique_starting_index=2 config_type=initial n_minim_iter=3 pbc="T T T"
Si       2.28266117       2.55184416       3.30450914
Si       2.14334224       2.55184416       1.85220490
Si       2.79268639       5.53561460       2.50305454
Si       1.63331702       5.53561460       2.65365950
Si       4.35634394       5.53358879       0.72615212
Si       0.06965947       5.53358879       4.43056193
Si       3.84631872       2.54981834       5.08141156
Si       0.57968468       2.54981834       0.07530248
8
Lattice="5.483661887770927 0.0 0.0 0.0 8.078159276136073 -5.014979488137622e-16 0.0 3.07379648827554e-16 5.132490914282613" Properties=species:S:1:pos:R:3 unique_starting_index=2 config_type=initial n_minim_iter=4 pbc="T T T"
Si       2.82782246       2.54939081       3.28604571
Si       2.65583943       2.54939081       1.84644521
Si       3.53828979       5.53040102       2.48031496
Si       1.94537210       5.53040102       2.65217595
Si       5.39767037       5.52876846       0.71980025
Si       0.08599152       5.52876846       4.41269066
Si       4.68720304       2.54775826       5.04656042
Si       0.79645885       2.54775826       0.08593050
8
Lattice="5.489998858811185 0.0 0.0 0.0 8.074835528216965 -5.088472786547061e-16 0.0 2.992573992296523e-16 5.123677498804857" Properties=species:S:1:pos:R:3 unique_starting_index=2 config_type=initial n_minim_iter=5 pbc="T T T"
Si       2.83098751       2.54837614       3.27990788
Si       2.65901135       2.54837614       1.84376962
Si       3.54292849       5.52825170       2.47601771
Si       1.94707036       5.52825170       2.64765979
Si       5.40401078       5.52645939       0.71806913
Si       0.08598808       5.52645939       4.40560837
Si       4.69206979       2.54658383       5.03785646
Si       0.79792906       2.54658383       0.08582104
8
Lattice="5.496125354502388 0.0 0.0 0.0 8.072471616677237 -5.163815135643254e-16 0.0 2.913135542571852e-16 5.119634530027319" Properties=species:S:1:pos:R:3 unique_starting_index=2 config_type=initial n_minim_iter=6 pbc="T T T"
Si       2.83409221       2.54766299       3.27710186
Si       2.66203315       2.54766299       1.84253267
Si       3.54736762       5.52671663       2.47402856
Si       1.94875773       5.52671663       2.64560597
Si       5.41009582       5.52480863       0.71728460
Si       0.08602953       5.52480863       4.40234993
Si       4.69682041       2.54575499       5.03384582
Si       0.79930495       2.54575499       0.08578871
8
Lattice="8.446134630731569 0.0 0.0 0.0 7.370276562869106 -4.720966937316974e-16 0.0 2.3553330969477216e-16 4.2509003070504185" Properties=species:S:1:pos:R:3 unique_starting_index=2 config_type=initial n_minim_iter=7 pbc="T T T"
Si       4.33327536       2.33663035       2.67990548
Si       4.11285927       2.33663035       1.57099483
Si       5.72546037       5.06843683       2.04304687
Si       2.72067426       5.06843683       2.20785344
Si       8.33592659       5.03364621       0.55445532
Si       0.11020804       5.03364621       3.69644499
Si       6.94374157       2.30183973       4.16849702
Si       1.50239306       2.30183973       0.08240328
8
Lattice="8.494564641629054 0.0 0.0 0.0 7.367538247333414 -5.308770762702088e-16 0.0 2.3848779810283943e-16 4.990791973637576" Properties=species:S:1:pos:R:3 unique_starting_index=2 config_type=initial n_minim_iter=8 pbc="T T T"
Si       4.39438984       2.33581058       3.20006392
Si       4.10017481       2.33581058       1.79072806
Si       5.75828845       5.06652082       2.39864872
Si       2.73627619       5.06652082       2.59214325
Si       8.34745713       5.03172767       0.70466793
Si       0.14710752       5.03172767       4.28612404
Si       6.98355851       2.30101743       4.89404471
Si       1.51100613       2.30101743       0.09674727
8
Lattice="8.490273936714186 0.0 0.0 0.0 7.364716537539635 -5.395287835571641e-16 0.0 2.297287187826537e-16 4.991053036079764" Properties=species:S:1:pos:R:3 unique_starting_index=2 config_type=initial n_minim_iter=9 pbc="T T T"
Si       4.39230241       2.33496749       3.20038057
Si       4.09797153       2.33496749       1.79067247
Si       5.75536951       5.06454688       2.39877220
Si       2.73490442       5.06454688       2.59228084
Si       8.34310850       5.02974905       0.70485405
Si       0.14716544       5.02974905       4.28619899
Si       6.98004139       2.30016966       4.89429872
Si       1.51023254       2.30016966       0.09675432
8
Lattice="8.459978922129281 0.0 0.0 0.0 7.344820740258421 -5.471280924459959e-16 0.0 2.2133682080531346e-16 4.992062534772937" Properties=species:S:1:pos:R:3 unique_starting_index=2 config_type=initial n_minim_iter=10 pbc="T T T"
Si       4.37752928       2.32902330       3.20202643
Si       4.08244964       2.32902330       1.79003610
Si       5.73476031       5.05062916       2.39924309
Si       2.72521861       5.05062916       2.59281945
Si       8.31243910       5.01579745       0.70599517
Si       0.14753982       5.01579745       4.28606737
Si       6.95520807       2.29419158       4.89527436
Si       1.50477085       2.29419158       0.09678818
8
Lattice="8.429778976540298 0.0 0.0 0.0 7.325191673857281 -5.541621942005016e-16 0.0 2.1310050766114418e-16 4.988070264170533" Properties=species:S:1:pos:R:3 unique_starting_index=2 config_type=initial n_minim_iter=11 pbc="T T T"
Si       4.36260557       2.32316430       3.20011915
Si       4.06717340       2.32316430       1.78795111
Si       5.71421688       5.03689868       2.39730884
Si       2.71556209       5.03689868       2.59076143
Si       8.28206289       5.00202737       0.70608402
Si       0.14771609       5.00202737       4.28198624
Si       6.93045158       2.28829299       4.89134397
Si       1.49932739       2.28829299       0.09672629
8
Lattice="6.562543776554324 0.0 0.0 0.0 6.081787641990364 -4.939858848334701e-16 0.0 1.9201270813148192e-16 4.6658095623488265" Properties=species:S:1:pos:R:3 unique_starting_index=2 config_type=initial n_minim_iter=12 pbc="T T T"
Si       3.43276383       1.95021754       3.03230514
Si       3.12977994       1.95021754       1.63350442
Si       4.44484295       4.16841884       2.24142852
Si       2.11770083       4.16841884       2.42438105
Si       6.41105183       4.13157010       0.69940036
Si       0.15149195       4.13157010       3.96640920
Si       5.39897272       1.91336880       4.57433330
Si       1.16357106       1.91336880       0.09147627
8
Lattice="6.517199709961706 0.0 0.0 0.0 6.070104458346933 -5.322400673476903e-16 0.0 2.0128215147519632e-16 5.164427422121204" Properties=species:S:1:pos:R:3 unique_starting_index=2 config_type=initial n_minim_iter=13 pbc="T T T"
Si       3.42105137       1.94355235       3.39235021
Si       3.09614834       1.94355235       1.77207722
Si       4.41732677       4.16293992       2.48205788
Si       2.09987294       4.16293992       2.68236954
Si       6.35474819       4.12655211       0.81013649
Si       0.16245152       4.12655211       4.35429093
Si       5.35847280       1.90716454       5.06427159
Si       1.15872691       1.90716454       0.10015583
8
Lattice="6.722164855506864 0.0 0.0 0.0 5.352317721187708 -1.0870575860274497e-15 0.0 5.850499259434477e-16 15.159784592050235" Properties=species:S:1:pos:R:3 unique_starting_index=2 config_type=initial n_minim_iter=14 pbc="T T T"
Si       3.61893560       1.71620734      10.73915167
Si       3.10322926       1.71620734       4.42063292
Si       4.58113080       3.66619339       7.29870488
Si       2.14103405       3.66619339       7.86107972
Si       6.46431168       3.63611038       3.15925938
Si       0.25785317       3.63611038      12.00052521
Si       5.50211648       1.68612433      14.87859717
Si       1.22004838       1.68612433       0.28118742
8
Lattice="6.068530192144326 0.0 0.0 0.0 4.5488707497875405 -7.530613190677965e-15 0.0 -6.030105255014514e-15 13.17617642116341" Properties=species:S:1:pos:R:3 unique_starting_index=2 config_type=initial n_minim_iter=15 pbc="T T T"
Si       3.26639185       1.46319665       9.34752212
Si       2.80213834       1.46319665       3.82865430
Si       4.13923823       3.11431173       6.37019190
Si       1.92929196       3.11431173       6.80598452
Si       5.83640344       3.08567410       2.75943391
Si       0.23212675       3.08567410      10.41674251
Si       4.96355705       1.43455902      12.95828011
Si       1.10497314       1.43455902       0.21789631
8
Lattice="5.703755636536013 0.0 0.0 0.0 3.761816175293364 4.7604923657589235e-14 0.0 4.884516787570483e-14 10.896856857912827" Properties=species:S:1:pos:R:3 unique_starting_index=2 config_type=initial n_minim_iter=16 pbc="T T T"
Si       3.06770872       1.20680492       7.69517988
Si       2.63604692       1.20680492       3.20167698
Si       3.91027014       2.57752947       5.24181912
Si       1.79348550       2.57752947       5.65503773
Si       5.48792473       2.55501125       2.24675145
Si       0.21583090       2.55501125       8.65010541
Si       4.64536332       1.18428670      10.69024755
Si       1.05839232       1.18428670       0.20660931
8
Lattice="4.735800813141127 0.0 0.0 0.0 2.1075150956646733 1.1382231993531434e-13 0.0 1.2034533319396594e-13 5.333592591694244" Properties=species:S:1:pos:R:3 unique_starting_index=2 config_type=initial n_minim_iter=17 pbc="T T T"
Si       2.54039217       0.68394952       3.69889677
Si       2.19540864       0.68394952       1.63469582
Si       3.30214964       1.43908191       2.52461641
Si       1.43365118       1.43908191       2.80897618
Si       4.56330905       1.42356558       1.03210048
Si       0.17249176       1.42356558       4.30149211
Si       3.80155158       0.66843319       5.19141271
Si       0.93424923       0.66843319       0.14217989
8
Lattice="6.901422711213813 0.0 0.0 0.0 2.375086147205987 1.0738812444426519e-13 0.0 9.888462344171847e-14 8.104228489936245" Properties=species:S:1:pos:R:3 unique_starting_index=2 config_type=initial n_minim_iter=18 pbc="T T T"
Si       3.68622733       0.76378837       5.78497791
Si       3.21519538       0.76378837       2.31925058
Si       4.96747171       1.62845435       3.83154158
Si       1.93395100       1.62845435       4.27268691
Si       6.66590674       1.61129778       1.73286366
Si       0.23551597       1.61129778       6.37136483
Si       5.38466236       0.74663180       7.88365583
Si       1.51676035       0.74663180       0.22057266
8
Lattice="6.902074764882459 0.0 0.0 0.0 2.377269190566491 1.9507522612737865e-13 0.0 1.866727692278446e-13 8.103471008756237" Properties=species:S:1:pos:R:3 unique_starting_index=2 config_type=initial n_minim_iter=19 pbc="T T T"
Si       3.68654153       0.76449189       5.78455443
Si       3.21553323       0.76449189       2.31891658
Si       4.96802106       1.62994908       3.83123260
Si       1.93405370       1.62994908       4.27223841
Si       6.66657062       1.61277730       1.73281893
Si       0.23550415       1.61277730       6.37065208
Si       5.38509108       0.74732011       7.88296811
Si       1.51698368       0.74732011       0.22050290
8
Lattice="6.932106671738015 0.0 0.0 0.0 2.4827532612922876 3.471734695938468e-13 0.0 3.4778577151271287e-13 8.065618155062086" Properties=species:S:1:pos:R:3 unique_starting_index=2 config_type=initial n_minim_iter=20 pbc="T T T"
Si       3.70094492       0.79848903       5.76313445
Si       3.23116175       0.79848903       2.30248371
Si       4.99350030       1.70216998       3.81566141
Si       1.93860637       1.70216998       4.24995674
Si       6.69721509       1.68426423       1.73032537
Si       0.23489159       1.68426423       6.33529279
Si       5.40465971       0.78058328       7.84847049
Si       1.52744697       0.78058328       0.21714766
8
Lattice="6.892420600026295 0.0 0.0 0.0 2.518180251331029 6.080557849840776e-13 0.0 6.18809970012871e-13 7.937753934141034" Properties=species:S:1:pos:R:3 unique_starting_index=2 config_type=initial n_minim_iter=21 pbc="T T T"
Si       3.67842787       0.80996173       5.67691781
Si       3.21399273       0.80996173       2.26083613
Si       4.96864246       1.72634543       3.75636393
Si       1.92377814       1.72634543       4.18139001
Si       6.66020303       1.70821852       1.70804084
Si       0.23221757       1.70821852       6.22971309
Si       5.36998844       0.79183483       7.72524090
Si       1.52243216       0.79183483       0.21251304
8
Lattice="6.811728278645873 0.0 0.0 0.0 2.579539045986075 1.030963827357338e-12 0.0 1.0795594768109104e-12 7.611098288427608" Properties=species:S:1:pos:R:3 unique_starting_index=2 config_type=initial n_minim_iter=22 pbc="T T T"
Si       3.63263597       0.82977095       5.45726609
Si       3.17909231       0.82977095       2.15383220
Si       4.92116635       1.76822704       3.60357354
Si       1.89056193       1.76822704       4.00752474
Si       6.58495645       1.74976810       1.65171695
Si       0.22677183       1.74976810       5.95938134
Si       5.29642607       0.81131201       7.40912269
Si       1.51530221       0.81131201       0.20197560
8
Lattice="6.869668402441859 0.0 0.0 0.0 2.638286925960717 1.642414773148787e-12 0.0 1.7463819592350975e-12 7.328515086956426" Properties=species:S:1:pos:R:3 unique_starting_index=2 config_type=initial n_minim_iter=23 pbc="T T T"
Si       3.66065774       0.84819735       5.27738881
Si       3.20901066       0.84819735       2.05112628
Si       4.98197657       1.80875771       3.47037997
Si       1.88769183       1.80875771       3.85813512
Si       6.64384486       1.79008958       1.61313127
Si       0.22582354       1.79008958       5.71538382
Si       5.32252603       0.82952922       7.13463751
Si       1.54714237       0.82952922       0.19387758
8
Lattice="6.948924984282347 0.0 0.0 0.0 2.613781824996467 2.518261528351152e-12 0.0 2.65263230341745e-12 7.091642746598948" Properties=species:S:1:pos:R:3 unique_starting_index=2 config_type=initial n_minim_iter=24 pbc="T T T"
Si       3.69508318       0.83945661       5.13034538
Si       3.25384180       0.83945661       1.96129737
Si       5.05996522       1.79256411       3.35963020
Si       1.88895976       1.79256411       3.73201255
Si       6.72830429       1.77432522       1.58452400
Si       0.22062069       1.77432522       5.50711874
Si       5.36342225       0.82121772       6.90545157
Si       1.58550273       0.82121772       0.18619117
8
Lattice="7.054376390972911 0.0 0.0 0.0 2.6375951682153844 3.688504979844177e-12 0.0 3.820585644699881e-12 7.168856708417403" Properties=species:S:1:pos:R:3 unique_starting_index=2 config_type=initial n_minim_iter=25 pbc="T T T"
Si       3.74386125       0.84671763       5.19472572
Si       3.31051514       0.84671763       1.97413099
Si       5.14434893       1.80919918       3.39911951
Si       1.91002746       1.80919918       3.76973719
Si       6.83770333       1.79087754       1.61029737
Si       0.21667306       1.79087754       5.55855934
Si       5.43721565       0.82839599       6.98354787
Si       1.61716074       0.82839599       0.18530884
8
Lattice="7.009351460896818 0.0 0.0 0.0 2.615361417839528 5.49288839391373e-12 0.0 5.623009618802316e-12 7.1104485650378555" Properties=species:S:1:pos:R:3 unique_starting_index=2 config_type=initial n_minim_iter=26 pbc="T T T"
Si       3.71725909       0.83951228       5.15494022
Si       3.29209237       0.83951228       1.95550834
Si       5.11372609       1.79398392       3.37253012
Si       1.89562537       1.79398392       3.73791844
Si       6.79676810       1.77584914       1.59971594
Si       0.21258336       1.77584914       5.51073263
Si       5.40030110       0.82137750       6.92775440
Si       1.60905036       0.82137750       0.18269416
