4
Lattice="1.9268146038881124 -3.3373407906999124 7.40621558941529e-35 1.9268146038881127 3.3373407906999124 -7.406215589415292e-35 -6.300718080526222e-50 -1.3985618336364868e-34 6.3330157364134765" Properties=species:S:1:pos:R:3 cutoff=-1.0 nneightol=1.2 n_minim_iter=2 pbc="T T T"
Si       1.92681460       1.11244693       0.39491470
Si       1.92681460      -1.11244693       3.56142257
Si       1.92681460       1.11244693       2.77159317
Si       1.92681460      -1.11244693      -0.39491470
