4
Lattice="1.9193831003487796 -3.3244690489931594 0.0 1.9193831003487798 3.3244690489931594 0.0 0.0 0.0 6.268678969999999" Properties=species:S:1:pos:R:3 cutoff=-1.0 nneightol=1.2 n_minim_iter=1 pbc="T T T"
Si       1.91938310       1.10815635       0.39179244
Si       1.91938310      -1.10815635       3.52613192
Si       1.91938310       1.10815635       2.74254705
Si       1.91938310      -1.10815635      -0.39179244
