6
Lattice="3.8084749311856334 -8.463675645535754e-65 -1.1616851563501033e-49 1.5420616881053614e-64 3.8084749311856334 2.280767396257953e-15 3.68873473274074e-49 -7.242191109949809e-15 12.093167998785194" Properties=species:S:1:pos:R:3 unique_starting_index=46 config_type=initial n_minim_iter=1 energy=-973.3504087295239 free_energy=-973.3504087295239 pbc="T T T"
Si       3.04441521       0.76405973       9.32208117
Si       0.76405973       3.04441521       9.32208117
Si       3.04441521       3.04441521       2.77108683
Si       0.76405973       0.76405973       2.77108683
Si       1.90423747       1.90423747      10.88387340
Si       1.90423747       1.90423747       1.20929460
6
Lattice="3.7354343075713254 -5.728061580238291e-65 -1.1762140493036913e-49 1.7807928275162973e-64 3.7354343075713254 2.331356322199103e-15 3.6841947735751625e-49 -7.160427361968664e-15 12.456432706729174" Properties=species:S:1:pos:R:3 unique_starting_index=46 config_type=initial n_minim_iter=2 stress="-0.0030665260199369757 -1.456361482396087e-16 -3.160365977760585e-17 -1.456361482396087e-16 -0.003066526019936853 -2.2607271557389615e-17 -3.160365977760585e-17 -2.2607271557389615e-17 -0.010625701872143433" pbc="T T T"
Si       2.95087023       0.78456408       9.59355543
Si       0.78456408       2.95087023       9.59355543
Si       2.95087023       2.95087023       2.86287728
Si       0.78456408       0.78456408       2.86287728
Si       1.86771715       1.86771715      11.23739311
Si       1.86771715       1.86771715       1.21903960
6
Lattice="3.6456887636928275 -2.419480349607451e-63 3.4984823696939554e-48 9.27578653189747e-64 3.6456887636928266 2.378631734144306e-15 1.1958856550713005e-47 -8.067584776980433e-15 14.617759195124622" Properties=species:S:1:pos:R:3 unique_starting_index=46 config_type=initial n_minim_iter=3 stress="0.028589265696543405 -1.102878209525869e-16 -1.0408206206446669e-17 -1.102878209525869e-16 0.028589265696543444 2.2138899547367664e-18 -1.0408206206446669e-17 2.2138899547367664e-18 0.0047118528480710195" pbc="T T T"
Si       2.78990280       0.85578597      11.21880573
Si       0.85578597       2.78990280      11.21880573
Si       2.78990280       2.78990280       3.39895347
Si       0.85578597       0.85578597       3.39895347
Si       1.82284438       1.82284438      13.28817906
Si       1.82284438       1.82284438       1.32958014
6
Lattice="3.5591965919138957 6.3150764846887554e-58 -5.8094379045869825e-43 2.7242309631986886e-58 3.5591965919138966 1.965494090173488e-15 -1.8445894231922317e-42 -9.829945042335626e-15 15.835229494465215" Properties=species:S:1:pos:R:3 unique_starting_index=46 config_type=initial n_minim_iter=4 stress="0.039869770380983306 -2.66626700016654e-16 -7.574024738768303e-18 -2.66626700016654e-16 0.039869770380983195 1.396868856398402e-17 -7.574024738768303e-18 1.396868856398402e-17 0.021788935556069935" pbc="T T T"
Si       2.67947704       0.87971955      12.13177167
Si       0.87971955       2.67947704      12.13177167
Si       2.67947704       2.67947704       3.70345783
Si       0.87971955       0.87971955       3.70345783
Si       1.77959830       1.77959830      14.45008546
Si       1.77959830       1.77959830       1.38514404
6
Lattice="3.422955204948186 -3.2722430207940226e-54 5.204857029722323e-39 -3.9715089946750115e-55 3.422955204948187 1.6497116156756211e-15 1.6526675830663971e-38 -1.0917290529070264e-14 16.396645978236915" Properties=species:S:1:pos:R:3 unique_starting_index=46 config_type=initial n_minim_iter=5 stress="0.02141958445048359 -1.9944777610012084e-16 -2.472304976867893e-17 -1.9944777610012084e-16 0.021419584450483774 -2.5018512382814072e-17 -2.472304976867893e-17 -2.5018512382814072e-17 0.033247099796581296" pbc="T T T"
Si       2.55368027       0.86927494      12.55031818
Si       0.86927494       2.55368027      12.55031818
Si       2.55368027       2.55368027       3.84632780
Si       0.86927494       0.86927494       3.84632780
Si       1.71147760       1.71147760      14.99472602
Si       1.71147760       1.71147760       1.40191996
6
Lattice="3.3710747575940854 1.8094597307193022e-50 -2.88709537136877e-35 -5.780604917240508e-51 3.371074757594085 3.2749264689435725e-15 -9.167662535711652e-35 -5.297256540102552e-15 15.753724293409439" Properties=species:S:1:pos:R:3 unique_starting_index=46 config_type=initial n_minim_iter=6 stress="-0.008596431937720465 -2.4852137798313327e-16 1.767991973848542e-17 -2.4852137798313327e-16 -0.008596431937720465 2.409886874585884e-18 1.767991973848542e-17 2.409886874585884e-18 0.0016422291635984933" pbc="T T T"
Si       2.53250214       0.83857262      12.06659355
Si       0.83857262       2.53250214      12.06659355
Si       2.53250214       2.53250214       3.68713074
Si       0.83857262       0.83857262       3.68713074
Si       1.68553738       1.68553738      14.38894673
Si       1.68553738       1.68553738       1.36477757
6
Lattice="3.3929101136548794 -1.1854698068294905e-44 2.486277512646373e-29 3.0528960156672746e-45 3.3929101136548807 2.350814758998141e-15 7.894711264349446e-29 -8.110316551519519e-15 15.6730373326421" Properties=species:S:1:pos:R:3 unique_starting_index=46 config_type=initial n_minim_iter=7 stress="4.8757385130237734e-05 -3.796623374294366e-16 -9.655382434446243e-18 -3.796623374294366e-16 4.8757385130355884e-05 -4.095974910181638e-17 -9.655382434446243e-18 -4.095974910181638e-17 0.0006897851562063641" pbc="T T T"
Si       2.54954912       0.84336100      12.00605474
Si       0.84336100       2.54954912      12.00605474
Si       2.54954912       2.54954912       3.66698259
Si       0.84336100       0.84336100       3.66698259
Si       1.69645506       1.69645506      14.31230715
Si       1.69645506       1.69645506       1.36073018
6
Lattice="3.392257084151054 4.1885430843974316e-41 -9.311752635070732e-26 -1.7680515975784365e-41 3.3922570841510558 2.3785892216085355e-15 -2.9567870386691395e-25 -8.02804506315498e-15 15.684521478534906" Properties=species:S:1:pos:R:3 unique_starting_index=46 config_type=initial n_minim_iter=8 stress="0.00040262769182222187 -2.3682206836983703e-16 -2.4144622088930402e-17 -2.3682206836983703e-16 0.00040262769182237935 -3.552273314884689e-18 -2.4144622088930402e-17 -3.552273314884689e-18 0.0010606545813278904" pbc="T T T"
Si       2.54514247       0.84711461      12.01402054
Si       0.84711461       2.54514247      12.01402054
Si       2.54514247       2.54514247       3.67050094
Si       0.84711461       0.84711461       3.67050094
Si       1.69612854       1.69612854      14.32612136
Si       1.69612854       1.69612854       1.35840012
6
Lattice="3.3913301189721063 -2.989751598678665e-37 3.427151379061884e-22 -3.4734139549636666e-38 3.391330118972108 2.6463069925965904e-15 1.0882347406462572e-21 -7.16624560406278e-15 15.668233061583145" Properties=species:S:1:pos:R:3 unique_starting_index=46 config_type=initial n_minim_iter=9 stress="0.00012941868990907625 -3.0712504675877395e-16 -4.484237681447617e-18 -3.0712504675877395e-16 0.00012941868990935226 5.008828641637604e-17 -4.484237681447617e-18 5.008828641637604e-17 0.0003054609225818503" pbc="T T T"
Si       2.54160578       0.84972434      12.00117604
Si       0.84972434       2.54160578      12.00117604
Si       2.54160578       2.54160578       3.66705702
Si       0.84972434       0.84972434       3.66705702
Si       1.69566506       1.69566506      14.31338407
Si       1.69566506       1.69566506       1.35484899
