6
Lattice="3.3913301189721063 -2.989751598678665e-37 3.427151379061884e-22 -3.4734139549636666e-38 3.391330118972108 2.6463069925965904e-15 1.0882347406462572e-21 -7.16624560406278e-15 15.668233061583145" Properties=species:S:1:pos:R:3 unique_starting_index=46 config_type=initial n_minim_iter=9 energy=-974.4729134158885 free_energy=-974.4729134158885 pbc="T T T"
Si       2.54160578       0.84972434      12.00117604
Si       0.84972434       2.54160578      12.00117604
Si       2.54160578       2.54160578       3.66705702
Si       0.84972434       0.84972434       3.66705702
Si       1.69566506       1.69566506      14.31338407
Si       1.69566506       1.69566506       1.35484899
