12
Lattice="4.25178 1.390306503324234e-15 5.930648041691023e-16 -1.025675138790989 6.7502913776048254 1.3070400913937681e-15 -0.3510913482319317 -0.44015576917417876 8.08920953199133" Properties=species:S:1:pos:R:3 unique_starting_index=44 config_type=initial n_minim_iter=1 pbc="T T T"
Si      -0.47942992       2.71851394       6.83127274
Si       0.03606287       3.79180642       2.85375745
Si       0.07347655       4.85392495       5.38874341
Si       1.52730063       3.25707285       3.86210330
Si       3.13067447       4.78817897       7.00218560
Si       2.38486625       1.26249752       5.79059674
Si       2.82122449       4.06041971       0.21454525
Si      -0.17739385       4.39787398       1.15033818
Si       0.89195741       1.89473356       6.80516724
Si       3.87144575       0.91022260       2.34072845
Si       0.30256068       0.51675547       5.81048730
Si       1.62480647       0.04015885       7.45636236
12
Lattice="4.279737326764444 0.0026356409710034602 0.00660880361068859 -1.028234958557846 6.792634617847721 -0.009721966045165118 -0.34109922045554353 -0.4529156975158529 8.138323293666378" Properties=species:S:1:pos:R:3 unique_starting_index=44 config_type=initial n_minim_iter=2 pbc="T T T"
Si      -0.47135532       2.72786563       6.86870688
Si       0.04227981       3.81241226       2.86704941
Si       0.08555454       4.87838966       5.41538828
Si       1.54617243       3.27384182       3.88444673
Si       3.16530620       4.81295579       7.04326952
Si       2.41009344       1.26546812       5.82800998
Si       2.84148798       4.08701640       0.21576482
Si      -0.17334117       4.42506824       1.15158349
Si       0.91153159       1.89922216       6.84589254
Si       3.90112517       0.91560324       2.35985805
Si       0.31317427       0.51207284       5.84460572
Si       1.64719801       0.03221049       7.50458729
12
Lattice="4.354311957611199 0.015606483000787482 0.021886927465784547 -1.0256319033033658 6.921538106022299 -0.028855721698848546 -0.3195326656288023 -0.4811082884754551 8.277757845031967" Properties=species:S:1:pos:R:3 unique_starting_index=44 config_type=initial n_minim_iter=3 pbc="T T T"
Si      -0.45083610       2.76596672       6.97855184
Si       0.06463148       3.87874268       2.91122433
Si       0.12174745       4.96123973       5.49638380
Si       1.59687376       3.33342170       3.94887809
Si       3.26023779       4.90208990       7.16341370
Si       2.47571758       1.28572501       5.93392974
Si       2.90041876       4.17258550       0.22079687
Si      -0.15626319       4.51033559       1.16025334
Si       0.96446534       1.92357224       6.96329455
Si       3.98028162       0.93988237       2.41208914
Si       0.33834414       0.50582855       5.94136588
Si       1.70295151       0.02007486       7.64065589
12
Lattice="4.493319239856533 0.029374912694092103 0.07007481742692381 -1.0373059318909363 7.140251341881535 -0.026952991028012973 -0.24075685152255671 -0.4805126491468489 8.496276586793757" Properties=species:S:1:pos:R:3 unique_starting_index=44 config_type=initial n_minim_iter=4 pbc="T T T"
Si      -0.39033732       2.87252005       7.16648388
Si       0.11191480       4.00544701       3.00695185
Si       0.20272459       5.13205870       5.65306821
Si       1.69967689       3.45400141       4.07752157
Si       3.45505104       5.08293818       7.40501374
Si       2.62209532       1.35012694       6.12361596
Si       3.00134641       4.31569521       0.26134187
Si      -0.12754054       4.66246493       1.19846950
Si       1.09375447       2.00274001       7.16824614
Si       4.13643896       0.98714451       2.52240564
Si       0.40959559       0.52663912       6.09861805
Si       1.84150278       0.03950959       7.86841796
12
Lattice="4.6417498333306515 0.0032513202217952855 0.10635236960818559 -1.1145873130019546 7.224547503764409 -0.07773804675548932 -0.18128941114264094 -0.5338121704958597 8.56589326932771" Properties=species:S:1:pos:R:3 unique_starting_index=44 config_type=initial n_minim_iter=5 pbc="T T T"
Si      -0.37769670       2.86993682       7.20309658
Si       0.11084222       4.03143250       3.00680828
Si       0.22354846       5.15436611       5.66736724
Si       1.76818181       3.45777579       4.10445888
Si       3.59306434       5.07617373       7.46429001
Si       2.74693781       1.31694669       6.18565813
Si       3.06699127       4.34147369       0.25683669
Si      -0.14074095       4.71019913       1.18759296
Si       1.18399540       1.96703882       7.22015758
Si       4.28611462       0.95955651       2.57003034
Si       0.46550381       0.49667363       6.14837118
Si       1.96226876      -0.01885392       7.94918330
12
Lattice="5.2801783246672835 -0.12816090180526665 0.2762329081743249 -1.4772333155517066 7.474499074096492 -0.32774696869897874 0.1028020516708594 -0.7876804348100052 8.879768747661924" Properties=species:S:1:pos:R:3 unique_starting_index=44 config_type=initial n_minim_iter=6 pbc="T T T"
Si      -0.32011940       2.78604819       7.35494555
Si       0.09500646       4.06348741       3.00113292
Si       0.30912819       5.14326369       5.71968112
Si       2.06587973       3.39261846       4.22175495
Si       4.18998989       4.92280212       7.71886576
Si       3.29931509       1.11462372       6.46378369
Si       3.32384889       4.36761744       0.23079211
Si      -0.20892630       4.83438219       1.11414263
Si       1.59105849       1.75454883       7.45981409
Si       4.93347227       0.79868458       2.78756026
Si       0.72220322       0.33037545       6.36967864
Si       2.50528607      -0.30874515       8.31161236
12
Lattice="5.211516501008913 -0.10578902737905678 0.25080273117915075 -1.4251512707256468 7.233396366861328 -0.4218516383231534 0.05777371824221512 -0.894280224389256 8.80957057895037" Properties=species:S:1:pos:R:3 unique_starting_index=44 config_type=initial n_minim_iter=7 pbc="T T T"
Si      -0.34390275       2.58647272       7.24690897
Si       0.09884155       3.88062856       2.93147532
Si       0.30343509       4.89401332       5.59315006
Si       2.03396943       3.22913394       4.12728681
Si       4.12576507       4.67437370       7.55822902
Si       3.23910351       0.99673011       6.37359081
Si       3.28931814       4.23035390       0.15571709
Si      -0.18812772       4.66920755       1.02723963
Si       1.55110151       1.59877687       7.36633869
Si       4.86319714       0.75536677       2.72822609
Si       0.68341507       0.22335979       6.30072642
Si       2.43050064      -0.41328708       8.22569434
12
Lattice="5.228006372080384 -0.08652093817445432 0.23385649424148894 -1.398538424900869 7.0522182037244505 -0.5722467494633626 0.02217637476288615 -1.0694853728522697 8.797388242353396" Properties=species:S:1:pos:R:3 unique_starting_index=44 config_type=initial n_minim_iter=8 pbc="T T T"
Si      -0.36871729       2.35538648       7.16053458
Si       0.10299021       3.70468612       2.85505452
Si       0.30868469       4.64529223       5.46271387
Si       2.04025557       3.06097081       4.03753130
Si       4.13408414       4.41336823       7.41224338
Si       3.23667125       0.84261871       6.31607712
Si       3.30025450       4.12358028       0.05704637
Si      -0.16683008       4.53663965       0.91059987
Si       1.55025857       1.40410593       7.30791483
Si       4.87509055       0.69914229       2.68463347
Si       0.65986722       0.07325644       6.26642322
Si       2.40210684      -0.58137585       8.19409979
12
Lattice="5.306929806883046 -0.039080795907235726 0.22310321947866812 -1.342259647928951 6.882525697532433 -0.7756253158745448 -0.009710477367952157 -1.3099113270537763 8.755147828275868" Properties=species:S:1:pos:R:3 unique_starting_index=44 config_type=initial n_minim_iter=9 pbc="T T T"
Si      -0.37201077       2.07283752       7.02284712
Si       0.13198310       3.51107492       2.74326077
Si       0.35778500       4.37050831       5.27130725
Si       2.09782574       2.88124156       3.91212716
Si       4.22983009       4.13958626       7.20287395
Si       3.28607733       0.66424447       6.22753128
Si       3.36328988       4.04196408      -0.06693064
Si      -0.10814341       4.41080090       0.75408880
Si       1.60050759       1.17493196       7.21559093
Si       4.95507356       0.65530508       2.62917669
Si       0.64597426      -0.12366032       6.20060803
Si       2.40581905      -0.79794684       8.13237378
12
Lattice="5.4590415631653775 0.07886148575132976 0.19233927438935114 -1.191704463935838 6.654540087117595 -1.0383639460450693 -0.09301067049996559 -1.6303858204579416 8.60327302970444" Properties=species:S:1:pos:R:3 unique_starting_index=44 config_type=initial n_minim_iter=10 pbc="T T T"
Si      -0.36030901       1.69099733       6.76307777
Si       0.20072305       3.25520681       2.56185132
Si       0.46757605       4.01884744       4.95243279
Si       2.21844276       2.66712284       3.69911017
Si       4.42286960       3.83368412       6.82843337
Si       3.37404319       0.46351934       6.03132528
Si       3.50846665       3.97605529      -0.24255490
Si       0.03114255       4.25276053       0.53719321
Si       1.69223906       0.89882652       7.01297242
Si       5.11091593       0.65165800       2.51261162
Si       0.60207837      -0.38452932       6.03956034
Si       2.39820792      -1.06113576       7.95218098
12
Lattice="5.581049336272797 0.09583558608893518 0.03250091540692969 -1.1941881805119532 6.597747015176752 -1.333476376226665 -0.4089426093123344 -2.0282056860815194 8.452115685320653" Properties=species:S:1:pos:R:3 unique_starting_index=44 config_type=initial n_minim_iter=11 pbc="T T T"
Si      -0.59676799       1.30980835       6.48526954
Si       0.08177738       3.04743978       2.33589211
Si       0.29791823       3.71889802       4.57702966
Si       2.13754832       2.44148404       3.40886400
Si       4.25178964       3.49855347       6.29871074
Si       3.25358702       0.18177624       5.73983918
Si       3.52779411       3.93766912      -0.53709042
Si       0.02777690       4.18696103       0.27268285
Si       1.49849681       0.56722988       6.73222405
Si       5.14901128       0.55394312       2.27004742
Si       0.38016319      -0.68292493       5.86670706
Si       2.15970184      -1.43128855       7.71306933
12
Lattice="5.673903431588636 0.17078005374174768 0.06102094388181575 -1.0976030193099215 6.703892112328147 -1.272383936140019 -0.37010782085353733 -1.9610395729442796 8.47474149782135" Properties=species:S:1:pos:R:3 unique_starting_index=44 config_type=initial n_minim_iter=12 pbc="T T T"
Si      -0.51119770       1.41783137       6.53249586
Si       0.16291153       3.14194454       2.38387583
Si       0.42135996       3.86404768       4.64621889
Si       2.25742761       2.56502531       3.46909368
Si       4.44807235       3.71573174       6.39437752
Si       3.36927353       0.30644490       5.78882301
Si       3.65160214       4.06116570      -0.47940169
Si       0.11472063       4.28219533       0.32081952
Si       1.62535607       0.70218350       6.79019607
Si       5.26722214       0.66461531       2.31530956
Si       0.41112898      -0.62489428       5.88806152
Si       2.24555734      -1.32771213       7.74975808
12
Lattice="5.637903408032624 0.16606632965273013 0.046357972558896905 -1.096402270898011 6.6545345317576325 -1.2644016039757238 -0.3945441222929182 -1.952030998555317 8.383685755087432" Properties=species:S:1:pos:R:3 unique_starting_index=44 config_type=initial n_minim_iter=13 pbc="T T T"
Si      -0.53232112       1.40188385       6.45854618
Si       0.14661389       3.11332531       2.35364163
Si       0.39630662       3.83125572       4.58842384
Si       2.22796734       2.53984217       3.42369394
Si       4.38997189       3.68157632       6.30740392
Si       3.33205904       0.29841173       5.71506297
Si       3.62240808       4.02963869      -0.48926859
Si       0.10649248       4.25089550       0.30950566
Si       1.59096973       0.69277326       6.71112534
Si       5.22604944       0.65586847       2.27660955
Si       0.38704464      -0.62693357       5.82172663
Si       2.20689082      -1.32420734       7.65822558
12
Lattice="5.634189125616543 0.16182910715826607 0.03205033127715368 -1.1022334379237626 6.650973215039221 -1.2605778203903604 -0.4210197202517036 -1.9509361079802423 8.337950060591533" Properties=species:S:1:pos:R:3 unique_starting_index=44 config_type=initial n_minim_iter=14 pbc="T T T"
Si      -0.55543309       1.40003742       6.42014150
Si       0.12962063       3.10731594       2.33758687
Si       0.37333091       3.82807293       4.55781086
Si       2.21234991       2.53363558       3.39907057
Si       4.35517084       3.67780536       6.25637529
Si       3.31382714       0.29597739       5.67254527
Si       3.61176597       4.02560121      -0.49988584
Si       0.09920553       4.25035036       0.30149840
Si       1.56609026       0.69303111       6.66895528
Si       5.21477852       0.65261460       2.25116024
Si       0.36481384      -0.62977074       5.78688446
Si       2.18178365      -1.32529485       7.60871074
12
Lattice="5.643407322184557 0.1588483276226441 0.01737092521066731 -1.1091895846298823 6.662460753735777 -1.254834521643476 -0.4494005897296828 -1.9487532198058042 8.30472492304509" Properties=species:S:1:pos:R:3 unique_starting_index=44 config_type=initial n_minim_iter=15 pbc="T T T"
Si      -0.57934582       1.40616923       6.39266880
Si       0.11271873       3.10991301       2.32713736
Si       0.35173695       3.83734169       4.53704899
Si       2.20273721       2.53573922       3.38185828
Si       4.32982321       3.68832929       6.21725266
Si       3.30315986       0.29876642       5.63883210
Si       3.60947563       4.03175491      -0.50931420
Si       0.09333256       4.26080224       0.29627955
Si       1.54465931       0.70031791       6.63781569
Si       5.21548697       0.65340328       2.22956183
Si       0.34241468      -0.63047894       5.76096631
Si       2.16139405      -1.32396323       7.57076402
12
Lattice="5.660003781380793 0.15676659954182692 -0.005581409326092762 -1.1164982522241595 6.676395443339516 -1.2371798772835911 -0.4942234243840318 -1.93493588644847 8.247463347305022" Properties=species:S:1:pos:R:3 unique_starting_index=44 config_type=initial n_minim_iter=16 pbc="T T T"
Si      -0.61519386       1.42329256       6.34885405
Si       0.08830117       3.11546995       2.31385606
Si       0.32096315       3.85628449       4.50794036
Si       2.19062024       2.54304947       3.35715439
Si       4.29440685       3.71300998       6.15844988
Si       3.28906302       0.31133276       5.58396989
Si       3.60984800       4.04159036      -0.51913453
Si       0.08688566       4.27645611       0.29310572
Si       1.51260683       0.72062821       6.58751799
Si       5.21914845       0.65965931       2.19576838
Si       0.30714905      -0.62487661       5.71768044
Si       2.13073137      -1.31134059       7.50712453
12
Lattice="5.669912426003931 0.15720820258790846 -0.014992222612587137 -1.1181874509161858 6.680036637853206 -1.2226919580568978 -0.5129918587971979 -1.920575637003297 8.219882550311944" Properties=species:S:1:pos:R:3 unique_starting_index=44 config_type=initial n_minim_iter=17 pbc="T T T"
Si      -0.62923606       1.43705203       6.33041543
Si       0.07906982       3.11936814       2.31119596
Si       0.30988420       3.86849498       4.49907785
Si       2.18801678       2.54948500       3.34921605
Si       4.28319281       3.73039483       6.13650850
Si       3.28616421       0.32311335       5.55982998
Si       3.61308437       4.04593689      -0.51905625
Si       0.08566147       4.28319585       0.29585998
Si       1.50060078       0.73666259       6.56586380
Si       5.22385543       0.66583810       2.18208813
Si       0.29230757      -0.61707411       5.69779643
Si       2.11975179      -1.29774583       7.47775094
12
Lattice="5.70705083588183 0.15875722420757324 -0.047459689896474665 -1.1246872219351582 6.68615612246926 -1.1600624672512319 -0.5779897963739619 -1.8554607008193327 8.114264154570435" Properties=species:S:1:pos:R:3 unique_starting_index=44 config_type=initial n_minim_iter=18 pbc="T T T"
Si      -0.67800056       1.49510012       6.26346229
Si       0.04704575       3.13404310       2.30571018
Si       0.27176561       3.91589098       4.47160003
Si       2.18021257       2.57562923       3.32352811
Si       4.24630138       3.79902503       6.06174735
Si       3.27909148       0.37333164       5.47145436
Si       3.62632889       4.05791520      -0.51152209
Si       0.08145719       4.30458517       0.31206500
Si       1.45929474       0.80386452       6.48642228
Si       5.24286129       0.69088278       2.13404561
Si       0.24016310      -0.58066803       5.62318297
Si       2.08363456      -1.23720495       7.36776932
12
Lattice="5.752200455134397 0.16322969091187964 -0.0708369469732205 -1.1284781962006534 6.680318806926706 -1.0732984451613563 -0.6266573552539857 -1.7583040717190241 8.004927886032077" Properties=species:S:1:pos:R:3 unique_starting_index=44 config_type=initial n_minim_iter=19 pbc="T T T"
Si      -0.71219519       1.57612041       6.20452846
Si       0.02467569       3.15314757       2.31496524
Si       0.24873919       3.97569738       4.46353900
Si       2.18487573       2.61301645       3.31292620
Si       4.23436912       3.88904896       6.01159480
Si       3.29047034       0.44553745       5.39130449
Si       3.64972442       4.06582222      -0.48230357
Si       0.08252876       4.32285765       0.34499716
Si       1.43497186       0.89739404       6.41461007
Si       5.27491965       0.72631103       2.09772627
Si       0.19824901      -0.52372270       5.54960827
Si       2.06780390      -1.14783009       7.26125592
12
Lattice="5.783794030457396 0.16996426353578784 -0.08543193647403953 -1.1254075804207437 6.656596038879981 -0.9703104981920866 -0.657731027960074 -1.6382228500386977 7.86641777146739" Properties=species:S:1:pos:R:3 unique_starting_index=44 config_type=initial n_minim_iter=20 pbc="T T T"
Si      -0.73062586       1.66918265       6.12915854
Si       0.01131097       3.16974012       2.32527670
Si       0.23941484       4.03731593       4.45168678
Si       2.19281742       2.65417474       3.30051963
Si       4.23078841       3.98795888       5.95738532
Si       3.30609836       0.53143790       5.29999580
Si       3.66881069       4.06470290      -0.43682877
Si       0.08827214       4.33287767       0.38546095
Si       1.42451172       1.00830618       6.32583670
Si       5.30010442       0.76782791       2.06414041
Si       0.16407318      -0.45402607       5.45763519
Si       2.06343353      -1.03921346       7.13412587
12
Lattice="5.853427715899429 0.18168599410571812 -0.09483338859635113 -1.1235957376592345 6.682919738805843 -0.8602212616091068 -0.6825812055237347 -1.5118840012094212 7.768100380979469" Properties=species:S:1:pos:R:3 unique_starting_index=44 config_type=initial n_minim_iter=21 pbc="T T T"
Si      -0.74312315       1.79086032       6.09098556
Si       0.00530718       3.21605890       2.35619559
Si       0.24456839       4.14256176       4.47367583
Si       2.22293948       2.72672372       3.31332374
Si       4.26917271       4.13834905       5.94840481
Si       3.35110911       0.63705088       5.24226398
Si       3.71534886       4.09611795      -0.38069177
Si       0.10113288       4.37977242       0.43630320
Si       1.43716579       1.14764629       6.27452597
Si       5.36455781       0.82406879       2.04879244
Si       0.13518766      -0.37589342       5.39408777
Si       2.08465058      -0.92198878       7.04840598
12
Lattice="5.840136118182705 0.18436401060534588 -0.09670414334508767 -1.1161376252876234 6.658273307532673 -0.8399300723993103 -0.6853200834984263 -1.4867650451783256 7.723616148828259" Properties=species:S:1:pos:R:3 unique_starting_index=44 config_type=initial n_minim_iter=22 pbc="T T T"
Si      -0.74269832       1.80147702       6.06216635
Si       0.00524713       3.20881108       2.35234942
Si       0.24512445       4.14093893       4.46012450
Si       2.21841602       2.72665084       3.30246576
Si       4.25847360       4.14472166       5.92393541
Si       3.34361670       0.65119567       5.21315021
Si       3.70920230       4.08450621      -0.37114222
Si       0.10396582       4.36851650       0.44201137
Si       1.43336612       1.16474219       6.24248111
Si       5.35254328       0.83075081       2.03796801
Si       0.12873146      -0.36313104       5.36375190
Si       2.07803017      -0.90015463       7.00804268
12
Lattice="5.841347326934019 0.18789992747315953 -0.09934749025069992 -1.1108160511608753 6.64750174988635 -0.8141395901017815 -0.6908152375532961 -1.4562684094883402 7.6873107553479585" Properties=species:S:1:pos:R:3 unique_starting_index=44 config_type=initial n_minim_iter=23 pbc="T T T"
Si      -0.74457307       1.82309044       6.04234335
Si       0.00458031       3.21038977       2.35489149
Si       0.24638396       4.15364019       4.45627989
Si       2.21949239       2.73618197       3.29847168
Si       4.25730194       4.16822033       5.91001532
Si       3.34445651       0.67311462       5.19012472
Si       3.71208124       4.08202355      -0.35846144
Si       0.10774742       4.36827377       0.45194643
Si       1.43265500       1.19283764       6.21876974
Si       5.35382053       0.84224822       2.03000219
Si       0.12067134      -0.34587291       5.33921512
Si       2.07647429      -0.87272593       6.97546278
12
Lattice="5.849134516053656 0.19158153213212284 -0.10234853887170786 -1.1068495293972667 6.643442649575483 -0.7871599950698974 -0.6975490303103151 -1.424902217040901 7.656689511296319" Properties=species:S:1:pos:R:3 unique_starting_index=44 config_type=initial n_minim_iter=24 pbc="T T T"
Si      -0.74771606       1.84850168       6.02773013
Si       0.00348851       3.21573137       2.36025789
Si       0.24768586       4.17209502       4.45707118
Si       2.22286171       2.74948244       3.29777130
Si       4.26025685       4.19817378       5.90157036
Si       3.34881606       0.69734812       5.17103045
Si       3.71887037       4.08363687      -0.34505386
Si       0.11169585       4.37296900       0.46329978
Si       1.43312405       1.22443854       6.20006433
Si       5.36104891       0.85525966       2.02365958
Si       0.11210884      -0.32746410       5.31856169
Si       2.07712563      -0.84425828       6.94811093
12
Lattice="5.905901915000979 0.21655565666296386 -0.1262024754040688 -1.0808938807772361 6.612882323986423 -0.5918999288293781 -0.7502052209875019 -1.1982705269790292 7.436103268776098" Properties=species:S:1:pos:R:3 unique_starting_index=44 config_type=initial n_minim_iter=25 pbc="T T T"
Si      -0.77529145       2.03120106       5.92315135
Si      -0.00815799       3.25253705       2.39861737
Si       0.25292728       4.30460915       4.46261428
Si       2.24370464       2.84440670       3.29144511
Si       4.27627574       4.41278867       5.83981177
Si       3.37735250       0.87070068       5.03220710
Si       3.76635186       4.09296565      -0.24901944
Si       0.13858589       4.40591940       0.54591091
Si       1.43245262       1.45216959       6.06512674
Si       5.41255901       0.94785133       1.97622803
Si       0.04659910      -0.19520316       5.16853452
Si       2.07917467      -0.63984099       6.74947519
12
Lattice="5.923466452496259 0.21804561489040053 -0.17961310018629562 -1.0827655338866675 6.503917767006573 -0.3614773654843363 -0.8534260616608016 -0.9306252144654626 7.091922164263193" Properties=species:S:1:pos:R:3 unique_starting_index=44 config_type=initial n_minim_iter=26 pbc="T T T"
Si      -0.86366552       2.21177110       5.73012137
Si      -0.06806110       3.23796521       2.41511511
Si       0.19789349       4.40084421       4.40577324
Si       2.19998918       2.90260353       3.23129242
Si       4.18219883       4.59046388       5.66951491
Si       3.33917090       1.03768740       4.79004521
Si       3.76130035       4.03519956      -0.15150016
Si       0.14230052       4.39652050       0.62756172
Si       1.35755636       1.68595350       5.81926428
Si       5.41144113       1.01951180       1.87542632
Si      -0.06517658      -0.04562214       4.92024519
Si       2.02783452      -0.42117678       6.42264261
12
Lattice="6.0358166069608945 0.21729865104636692 -0.18275535232970908 -1.1110541527402944 6.621632196130725 -0.34164045267451504 -0.8686043452855807 -0.9153642198654799 7.182230346287296" Properties=species:S:1:pos:R:3 unique_starting_index=44 config_type=initial n_minim_iter=27 pbc="T T T"
Si      -0.88372889       2.27899934       5.81372901
Si      -0.07648293       3.30080327       2.46220184
Si       0.19852680       4.50056695       4.48089981
Si       2.23825385       2.96626967       3.28622442
Si       4.25123212       4.70186620       5.75929480
Si       3.40380134       1.07535491       4.85413260
Si       3.82477630       4.10475037      -0.13699155
Si       0.14464177       4.48338628       0.65181651
Si       1.38085048       1.74672121       5.89954136
Si       5.51432254       1.04358603       1.90458482
Si      -0.07009027      -0.02633205       4.98054444
Si       2.07293682      -0.40443613       6.50595891
12
Lattice="5.996172955361085 0.21445520410213126 -0.18619980230292 -1.1060051115230956 6.564428951193454 -0.3299094506137279 -0.8715896302462107 -0.8982926212834805 7.127074471181372" Properties=species:S:1:pos:R:3 unique_starting_index=44 config_type=initial n_minim_iter=28 pbc="T T T"
Si      -0.88660052       2.26790269       5.77294999
Si      -0.08136366       3.27182600       2.44942568
Si       0.18965469       4.46743510       4.45276014
Si       2.21688837       2.94334425       3.26446679
Si       4.21280640       4.67008155       5.71725571
Si       3.37593782       1.07182132       4.81489713
Si       3.79779564       4.06859842      -0.13352905
Si       0.14236164       4.44744586       0.65113360
Si       1.36359262       1.74090591       5.85421219
Si       5.47584971       1.03705633       1.88798815
Si      -0.07731366      -0.02076955       4.94080353
Si       2.05347988      -0.39383440       6.45353048
12
Lattice="6.000103417861218 0.21277741139056935 -0.18897008838335966 -1.1096170028590984 6.558864145097369 -0.3180842291054239 -0.8770110974446801 -0.8843949225798013 7.115837500294293" Properties=species:S:1:pos:R:3 unique_starting_index=44 config_type=initial n_minim_iter=29 pbc="T T T"
Si      -0.89304071       2.27771179       5.76878497
Si      -0.08610099       3.26986510       2.45312636
Si       0.18479964       4.47188296       4.45403424
Si       2.21365883       2.94525003       3.26470937
Si       4.20712010       4.67832515       5.71383359
Si       3.37535286       1.07896141       4.80690924
Si       3.79758580       4.06407977      -0.12789304
Si       0.14182398       4.44708050       0.65664102
Si       1.35913578       1.75222244       5.84644344
Si       5.47818504       1.03915791       1.88516698
Si      -0.08264662      -0.01269908       4.93150134
Si       2.05302571      -0.38333408       6.44222695
12
Lattice="6.040175483478833 0.19843712857208393 -0.21256417618803963 -1.1420509502707763 6.520298320210663 -0.21850143365382865 -0.9237243604305913 -0.7679561393677633 7.0300181502226415" Properties=species:S:1:pos:R:3 unique_starting_index=44 config_type=initial n_minim_iter=30 pbc="T T T"
Si      -0.94879991       2.36393590       5.74140203
Si      -0.12661047       3.25757767       2.48721341
Si       0.14343960       4.51512551       4.47042086
Si       2.18820681       2.96514292       3.27087248
Si       4.16263943       4.75387270       5.69263884
Si       3.37462542       1.14018451       4.74550575
Si       3.79960079       4.03088065      -0.08016371
Si       0.13774781       4.44960688       0.70451423
Si       1.32269754       1.84988449       5.78847228
Si       5.50388883       1.05791701       1.86399621
Si      -0.12758299       0.05545516       4.85885884
Si       2.05230855      -0.29530772       6.35463130
12
Lattice="6.123788053874933 0.13838014840561702 -0.2787713889420534 -1.2575699682181718 6.543092370719675 -0.01681715579876953 -1.050373726170681 -0.5409896298773977 6.886544489254171" Properties=species:S:1:pos:R:3 unique_starting_index=44 config_type=initial n_minim_iter=31 pbc="T T T"
Si      -1.11273764       2.58625720       5.71604352
Si      -0.24946073       3.26740641       2.57106100
Si      -0.00186277       4.65960799       4.51848136
Si       2.08473296       3.03078691       3.29316195
Si       3.98842062       4.95913282       5.65700260
Si       3.35343242       1.25547975       4.62405001
Si       3.77114092       3.99948751       0.01044466
Si       0.11131633       4.52541296       0.80347556
Si       1.20033186       2.07034791       5.68225323
Si       5.53546264       1.07987863       1.82070579
Si      -0.24243482       0.19280494       4.71678706
Si       2.03533259      -0.14137535       6.19064602
12
Lattice="5.9136072458750295 0.1552331063120201 -0.2875275075880601 -1.1801107379994804 6.360565165257306 -0.008721528224654052 -1.0514216030155588 -0.5235744433497908 6.730378392729305" Properties=species:S:1:pos:R:3 unique_starting_index=44 config_type=initial n_minim_iter=32 pbc="T T T"
Si      -1.08926969       2.52724502       5.59283111
Si      -0.24112517       3.16799007       2.52259640
Si      -0.00788483       4.53327480       4.41895447
Si       2.00236640       2.95263893       3.22131152
Si       3.83494655       4.84928298       5.51843808
Si       3.23126096       1.23421819       4.50520707
Si       3.65811129       3.90289441       0.00893611
Si       0.14282839       4.41072367       0.78523509
Si       1.14473553       2.02691885       5.54125693
Si       5.33650644       1.07037756       1.77441887
Si      -0.25688576       0.19123379       4.59730365
Si       1.94125414      -0.12793651       6.03959813
12
Lattice="6.058662503021499 0.1514305131428163 -0.2953602991091582 -1.221140185169531 6.533120073733401 -0.013291269365551158 -1.077908157896809 -0.5421926246934116 6.870132747601496" Properties=species:S:1:pos:R:3 unique_starting_index=44 config_type=initial n_minim_iter=33 pbc="T T T"
Si      -1.12331271       2.59272009       5.70753072
Si      -0.25652786       3.24952657       2.57353278
Si      -0.01670852       4.65082977       4.50612541
Si       2.04646065       3.02602103       3.28513814
Si       3.91375405       4.97167364       5.62722431
Si       3.30904111       1.25769833       4.59493092
Si       3.73856392       4.00265113       0.00707631
Si       0.14234154       4.53031826       0.79880957
Si       1.16791002       2.07582623       5.65292455
Si       5.46454642       1.08913619       1.80941797
Si      -0.26465392       0.19235861       4.68975007
Si       1.99023366      -0.14115967       6.16467948
12
Lattice="6.056700941201583 0.15033335344103915 -0.29588900024845954 -1.222408882628685 6.531101361460903 -0.00601989256136798 -1.0786384792537882 -0.5333923238875117 6.864067078518528" Properties=species:S:1:pos:R:3 unique_starting_index=44 config_type=initial n_minim_iter=34 pbc="T T T"
Si      -1.12490124       2.60052493       5.70639969
Si      -0.25890060       3.25028622       2.57575876
Si      -0.01951425       4.65438237       4.50749797
Si       2.04391586       3.02811154       3.28628688
Si       3.90795225       4.97762202       5.62717114
Si       3.30830888       1.26196451       4.59120327
Si       3.73589923       4.00100818       0.01176524
Si       0.14333942       4.53076747       0.80308502
Si       1.16667636       2.08250668       5.64906313
Si       5.46154030       1.09015541       1.80947409
Si      -0.26539125       0.19810013       4.68432500
Si       1.99005168      -0.13420860       6.15878154
12
Lattice="6.056250666898515 0.14851174982555215 -0.2977709971799702 -1.2251923098099429 6.532410446334796 0.004359355806351763 -1.0819933072940222 -0.5214046951273766 6.85858360141133" Properties=species:S:1:pos:R:3 unique_starting_index=44 config_type=initial n_minim_iter=35 pbc="T T T"
Si      -1.12949962       2.61345663       5.70753438
Si      -0.26373180       3.25299258       2.58021579
Si      -0.02533722       4.66208777       4.51125237
Si       2.03977547       3.03258130       3.28910133
Si       3.89857541       4.98903453       5.62870077
Si       3.30757246       1.26827948       4.58706374
Si       3.73298449       4.00096425       0.01799223
Si       0.14489369       4.53450554       0.80935287
Si       1.16372313       2.09315330       5.64546690
Si       5.45853620       1.09182556       1.80969141
Si      -0.26782154       0.20623051       4.67821893
Si       1.98912088      -0.12494942       6.15265818
12
Lattice="6.0517224247706745 0.14383672341659004 -0.30656241467370665 -1.2315221963717 6.5363669769918396 0.030283700786641367 -1.0978614970195775 -0.49267812340013056 6.846048133372883" Properties=species:S:1:pos:R:3 unique_starting_index=44 config_type=initial n_minim_iter=36 pbc="T T T"
Si      -1.14732735       2.64613952       5.71164573
Si      -0.27988155       3.25869656       2.59188912
Si      -0.04601015       4.68070392       4.52025492
Si       2.02379430       3.04289212       3.29513915
Si       3.86429772       5.01767531       5.62948642
Si       3.29970951       1.28273541       4.57387039
Si       3.72266853       4.00115780       0.03134404
Si       0.14962490       4.54497996       0.82423290
Si       1.14937134       2.11920515       5.63485869
Si       5.44489022       1.09548059       1.80744330
Si      -0.27900387       0.22576356       4.66209063
Si       1.97911241      -0.10352103       6.13612533
12
Lattice="6.035776889260738 0.13456724576539972 -0.33078229075113125 -1.2423921698219913 6.546705653819454 0.062236072262849176 -1.1416646333067997 -0.46115246717248637 6.84045167852633" Properties=species:S:1:pos:R:3 unique_starting_index=44 config_type=initial n_minim_iter=37 pbc="T T T"
Si      -1.19198105       2.68926431       5.72606329
Si      -0.31648520       3.26391693       2.61033072
Si      -0.09537363       4.70327461       4.53410495
Si       1.98361790       3.05299965       3.30239571
Si       3.78338769       5.05301568       5.62582013
Si       3.27014412       1.29451988       4.55226852
Si       3.69729247       4.00213638       0.04117158
Si       0.15526491       4.56330476       0.84068520
Si       1.10798339       2.14941792       5.62137595
Si       5.40764969       1.09561823       1.79760708
Si      -0.30944895       0.24733323       4.64336278
Si       1.94213726      -0.08409533       6.11724409
12
Lattice="5.994646777250211 0.11905344462827093 -0.36136743010860267 -1.2571004907381607 6.542455687370163 0.1240172714204186 -1.1948519302216698 -0.3941564275717795 6.80838408505219" Properties=species:S:1:pos:R:3 unique_starting_index=44 config_type=initial n_minim_iter=38 pbc="T T T"
Si      -1.24685104       2.76053748       5.73463191
Si      -0.36975499       3.27342590       2.63443392
Si      -0.16550008       4.73537320       4.55082758
Si       1.92328481       3.06880958       3.31036037
Si       3.66055977       5.10314838       5.61754542
Si       3.22057722       1.31906206       4.51088128
Si       3.64819694       3.99243475       0.06793510
Si       0.16074723       4.57698851       0.87347852
Si       1.05115410       2.20091935       5.58964353
Si       5.33773083       1.09699132       1.78277160
Si      -0.34722961       0.29113620       4.60287028
Si       1.88858179      -0.03765454       6.07073722
12
Lattice="6.01333854498295 0.11703881535716452 -0.37012595432284545 -1.264808089922818 6.5732764224784646 0.12542044374892733 -1.212850346131649 -0.3968185090635561 6.831738977981818" Properties=species:S:1:pos:R:3 unique_starting_index=44 config_type=initial n_minim_iter=39 pbc="T T T"
Si      -1.26472575       2.77468208       5.75539752
Si      -0.38165672       3.28717270       2.64393911
Si      -0.17975405       4.75597691       4.56487110
Si       1.92010302       3.08081546       3.31916246
Si       3.65346205       5.12534669       5.63020895
Si       3.22265447       1.32138389       4.51954601
Si       3.65539515       4.00958867       0.06517755
Si       0.16105479       4.59937649       0.87552597
Si       1.04236521       2.20979211       5.60435154
Si       5.34787633       1.09888786       1.78330168
Si      -0.35766692       0.29169170       4.61565047
Si       1.88302522      -0.04094824       6.08756898
