18
Lattice="7.281139611408747 -0.4621934586459737 0.24827989376811826 -3.9272511382245012 6.1486027137354515 -0.2482798937682581 -2.4332668152974843 -2.397119679216437 9.097811518904464" Properties=species:S:1:pos:R:3 unique_starting_index=64 config_type=initial n_minim_iter=1 energy=-2930.7971843262358 free_energy=-2930.7971843262358 pbc="T T T"
Si       0.20664209       3.12776621       5.67689491
Si       2.21985955      -0.72665638       1.25212910
Si      -1.38062783       0.35181492       3.41080602
Si       1.44806515      -0.39158998       8.08385173
Si       6.12721725      -3.09128479       7.14016994
Si       6.59981029       3.24934362       2.46712424
Si      -3.48905747       3.65505864       4.32881769
Si      -0.02965985       2.25258765      -0.09594813
Si      -2.43669852       2.26840869       2.71217563
Si      -0.74022361      -0.39463527       7.38522134
Si      -3.07758358       2.24713186       6.11452316
Si       1.40159159       2.57366067       1.68975735
Si       1.41641349       3.72389505       3.72672951
Si      -4.07706084       1.67765489       8.15149532
Si       3.41175092       1.34346955       1.17828490
Si      -1.02840621       1.08309458       5.60305072
Si      -1.81404796       4.31181507       6.06425284
Si       0.20596945       0.46892156       1.63948702
18
Lattice="7.301531523211279 -0.46947228938407565 0.2476934495991115 -3.9434873340907597 6.162927426216635 -0.24769344959925155 -2.4390226204722976 -2.398473338175951 9.113024495995205" Properties=species:S:1:pos:R:3 unique_starting_index=64 config_type=initial n_minim_iter=2 stress="0.002072302027274129 -8.800521664579165e-05 2.6821909986459154e-05 -8.800521664579165e-05 0.0019749981957295766 -1.5819771440704427e-05 2.6821909986459154e-05 -1.5819771440704427e-05 0.0017204176076325967" pbc="T T T"
Si       0.20398050       3.13313815       5.68606511
Si       2.22694433      -0.72988868       1.25339959
Si      -1.38466793       0.35293493       3.41703700
Si       1.45244833      -0.39291234       8.09739598
Si       6.14512971      -3.10172652       7.15064252
Si       6.61445261       3.25008124       2.47028355
Si      -3.50213252       3.66579050       4.33668734
Si      -0.03230413       2.25587565      -0.09597819
Si      -2.44631086       2.27541142       2.71691309
Si      -0.74368475      -0.39392716       7.39727207
Si      -3.08829878       2.25362808       6.12565021
Si       1.40379595       2.57693270       1.69298469
Si       1.41522287       3.73036675       3.73333087
Si      -4.09221885       1.68557421       8.16599639
Si       3.42029192       1.34278853       1.17947275
Si      -1.03259604       1.08595772       5.61213828
Si      -1.82326703       4.32160796       6.07526897
Si       0.20601252       0.46928922       1.64260345
18
Lattice="7.307759951030508 -0.493478161867775 0.24146549742624837 -3.967509938745829 6.156763848328009 -0.24146549742638765 -2.439012079222885 -2.378147258247654 9.093073691905714" Properties=species:S:1:pos:R:3 unique_starting_index=64 config_type=initial n_minim_iter=3 stress="0.0022383378101391463 -0.003032578033550133 -0.0003289052442084314 -0.003032578033550133 -0.001114661857006352 0.00019399087505579034 -0.0003289052442084314 0.00019399087505579034 -0.0006751374911335087" pbc="T T T"
Si       0.19149534       3.12130424       5.67029320
Si       2.23436939      -0.73540257       1.24448910
Si      -1.38451683       0.34976375       3.41365818
Si       1.45841624      -0.39335019       8.08092777
Si       6.14828573      -3.11062873       7.12537904
Si       6.60285682       3.22329669       2.45810945
Si      -3.51763185       3.67528107       4.33122649
Si      -0.04499990       2.24268247      -0.09457760
Si      -2.46240430       2.28327565       2.71136738
Si      -0.75523411      -0.38548745       7.37863697
Si      -3.09758099       2.25410750       6.11853790
Si       1.40199440       2.56265826       1.69273380
Si       1.38873403       3.72284059       3.72809066
Si      -4.11935112       1.70439422       8.15389476
Si       3.42119036       1.32616101       1.17101712
Si      -1.03851260       1.08521267       5.59682122
Si      -1.84060251       4.31713108       6.06832592
Si       0.20465225       0.46446071       1.64252183
18
Lattice="7.26021363170891 -0.4405002196378107 0.241291427875726 -3.898141520612043 6.14078456769435 -0.24129142787586616 -2.442742869066085 -2.4008815620669464 9.10826427495624" Properties=species:S:1:pos:R:3 unique_starting_index=64 config_type=initial n_minim_iter=4 stress="0.00013146244183499486 0.0012966779508191673 0.0006637631027098463 0.0012966779508191673 0.001565147144878685 -0.00039149264839005943 0.0006637631027098463 -0.00039149264839005943 -0.0011150588627222718" pbc="T T T"
Si       0.21900315       3.12050776       5.66871893
Si       2.22646747      -0.72123505       1.23523251
Si      -1.36091809       0.31885004       3.42724397
Si       1.47124989      -0.38392460       8.10202182
Si       6.07009514      -3.07396899       7.12767487
Si       6.58040395       3.29586676       2.45289702
Si      -3.46176469       3.67817421       4.33962095
Si      -0.04241005       2.23024568      -0.09386547
Si      -2.44298961       2.28376087       2.71133791
Si      -0.77190412      -0.38759150       7.38611576
Si      -3.04790318       2.21894540       6.13904083
Si       1.43489446       2.57405005       1.70555441
Si       1.37447750       3.76250889       3.74099528
Si      -4.11723527       1.69682134       8.17448171
Si       3.42203766       1.35253363       1.16197663
Si      -1.01745328       1.07085411       5.59546306
Si      -1.78655555       4.31456252       6.08921400
Si       0.21114136       0.45625938       1.65572757
18
Lattice="7.228417567403996 -0.44683902686817983 0.21611291104861313 -3.8883054998980424 6.109890832424887 -0.21611291104875252 -2.4622482893411597 -2.3642847396161524 9.198607021087643" Properties=species:S:1:pos:R:3 unique_starting_index=64 config_type=initial n_minim_iter=5 stress="-0.0013082059443736559 -0.0008564570296210964 -0.0010867299892799373 -0.0008564570296210964 -0.0022551560651868823 0.0006409618128076891 -0.0010867299892799373 0.0006409618128076891 0.0041315356159979675" pbc="T T T"
Si       0.19209011       3.10780659       5.72252615
Si       2.21841677      -0.71300437       1.23127909
Si      -1.36263652       0.32063241       3.46739206
Si       1.44320787      -0.36815401       8.17475202
Si       6.01600017      -3.04875938       7.16327648
Si       6.53585982       3.27865051       2.45591652
Si      -3.46356142       3.68232943       4.40488507
Si      -0.05306119       2.20833994      -0.08636199
Si      -2.44713885       2.28417427       2.75072601
Si      -0.79992413      -0.36903123       7.45808597
Si      -3.05240637       2.21626010       6.21796941
Si       1.42892050       2.55782247       1.72672236
Si       1.33050819       3.75625363       3.77962898
Si      -4.14884878       1.72256356       8.27087603
Si       3.40799531       1.34001468       1.15762952
Si      -1.02910577       1.07343570       5.64887658
Si      -1.80023899       4.30390047       6.16836585
Si       0.20770681       0.45192538       1.67711879
18
Lattice="7.258066106307896 -0.4536241263494569 0.21180850675165 -3.9085881306570065 6.132555525751789 -0.2118085067517899 -2.4714524813885177 -2.369557875162997 9.075927047583297" Properties=species:S:1:pos:R:3 unique_starting_index=64 config_type=initial n_minim_iter=6 stress="0.0009783773307752135 -0.0018937811074081871 -0.0011944611902918417 -0.0018937811074081871 -0.0011155003378407586 0.0007045025143411369 -0.0011944611902918417 0.0007045025143411369 -0.005723886523959905" pbc="T T T"
Si       0.18115205       3.10054394       5.62963234
Si       2.23890713      -0.70067390       1.19757307
Si      -1.35605168       0.32068081       3.42405607
Si       1.45657355      -0.37996940       8.06792384
Si       6.03525687      -3.06250837       7.06052796
Si       6.55635299       3.29035839       2.41666018
Si      -3.47166388       3.72462608       4.35961878
Si      -0.07457162       2.19421104      -0.07244049
Si      -2.45924438       2.30114039       2.71832373
Si      -0.81040705      -0.37267451       7.36219151
Si      -3.05145488       2.21252519       6.14636422
Si       1.45207589       2.55804080       1.71430495
Si       1.28023639       3.78392131       3.72336307
Si      -4.20744555       1.76980926       8.15542234
Si       3.44042498       1.33488115       1.12659322
Si      -1.01898343       1.06417356       5.55865249
Si      -1.79601652       4.31580883       6.10067739
Si       0.21875428       0.44171253       1.66861812
18
Lattice="7.249587741210469 -0.448987769682975 0.2677977979293407 -3.900428544741765 6.127378689308948 -0.2677977979294806 -2.4036047798512206 -2.4092107289217424 9.102350306899124" Properties=species:S:1:pos:R:3 unique_starting_index=64 config_type=initial n_minim_iter=7 stress="0.000364346827946201 -0.0011187682085203334 0.0033356417065832397 -0.0011187682085203334 -0.0008726302223667861 -0.001967387461669281 0.0033356417065832397 -0.001967387461669281 -0.0019750782058033335" pbc="T T T"
Si       0.21431638       3.06361093       5.63119721
Si       2.24911222      -0.68968476       1.21392096
Si      -1.32446147       0.31125968       3.42280725
Si       1.50978723      -0.42056626       8.10788130
Si       6.07869721      -3.08462058       7.14260213
Si       6.56671871       3.28000687       2.45752807
Si      -3.42862164       3.71573265       4.34521927
Si      -0.08412675       2.18298927      -0.07205698
Si      -2.42903346       2.28786610       2.70676772
Si      -0.75448853      -0.41020003       7.39184177
Si      -2.99231163       2.17862337       6.14231483
Si       1.47219728       2.54482747       1.72503857
Si       1.27698925       3.77225251       3.71950174
Si      -4.16096017       1.75561155       8.13677799
Si       3.45677975       1.32698821       1.14499858
Si      -0.96631878       1.03099406       5.56227484
Si      -1.73777461       4.28095227       6.09922945
Si       0.23927514       0.42974995       1.68195320
18
Lattice="7.236054879185801 -0.42547575502183616 0.23944838365670315 -3.873304124110847 6.126910721958149 -0.23944838365684357 -2.442624397384148 -2.4017268817799833 9.127388948795161" Properties=species:S:1:pos:R:3 unique_starting_index=64 config_type=initial n_minim_iter=8 stress="0.0003053707358357968 0.0009396941794100459 0.0010416737764960726 0.0009396941794100459 0.001344352828272434 -0.0006143873075406751 0.0010416737764960726 -0.0006143873075406751 0.0007157366943993907" pbc="T T T"
Si       0.19241955       3.07063723       5.64435063
Si       2.24511230      -0.66590673       1.20038035
Si      -1.33163423       0.32480342       3.43203358
Si       1.46818763      -0.40534367       8.11545225
Si       6.03485035      -3.05240776       7.12493474
Si       6.55718093       3.31034118       2.44151607
Si      -3.42418867       3.73777457       4.39180162
Si      -0.08852900       2.17645945      -0.05216866
Si      -2.42151398       2.29039391       2.73551797
Si      -0.77933896      -0.40250591       7.41893664
Si      -2.99407195       2.18443111       6.17710722
Si       1.47900623       2.55157224       1.73313694
Si       1.23723002       3.79817402       3.71596289
Si      -4.20203394       1.79289621       8.15993317
Si       3.46640083       1.33892503       1.13407844
Si      -0.97126247       1.03182870       5.57804873
Si      -1.73586689       4.29075795       6.13707533
Si       0.24435988       0.43135028       1.69310504
18
Lattice="7.234267640423516 -0.42474644561612357 0.22564173416869848 -3.8718011556285576 6.125699441501801 -0.22564173416883887 -2.4589296079534004 -2.3917851236380323 9.128620712742412" Properties=species:S:1:pos:R:3 unique_starting_index=64 config_type=initial n_minim_iter=9 stress="-0.0016059658678825692 0.0009751229826450732 -0.0023542490248572435 0.0009751229826450732 -0.0005278115714197698 0.0013885544133860294 -0.0023542490248572435 0.0013885544133860294 0.0022425789536687822" pbc="T T T"
Si       0.17351616       3.05251563       5.64092391
Si       2.25908492      -0.64520173       1.18943442
Si      -1.33790330       0.34211712       3.42359795
Si       1.44095592      -0.40289835       8.10072918
Si       6.02322580      -3.03472088       7.09415332
Si       6.54483971       3.30613986       2.41702210
Si      -3.42717557       3.76873256       4.43304128
Si      -0.10980858       2.15948921      -0.01844821
Si      -2.41491014       2.29368224       2.75971119
Si      -0.78806796      -0.40454080       7.43684241
Si      -2.98059823       2.18714201       6.18879683
Si       1.49041157       2.53386265       1.73730734
Si       1.16097127       3.81544152       3.68177926
Si      -4.26158460       1.85540533       8.13326875
Si       3.49600792       1.33519402       1.13241172
Si      -0.96121598       1.01184691       5.58390121
Si      -1.73323375       4.27949674       6.15686132
Si       0.26274828       0.42988800       1.70537183
18
Lattice="7.302706718216622 -0.45548572534336496 0.31709802859695413 -3.9318153219297916 6.1707228857335386 -0.31709802859709507 -2.3581071696293523 -2.460877604586638 9.020561146147577" Properties=species:S:1:pos:R:3 unique_starting_index=64 config_type=initial n_minim_iter=10 stress="-0.0019151444466313336 0.001286782311382023 -0.0036609132250506335 0.001286782311382023 -0.00049240095445587 0.0021592351369780255 -0.0036609132250506335 0.0021592351369780255 0.003683323113689932" pbc="T T T"
Si       0.24949521       2.98369365       5.56753219
Si       2.33988414      -0.65922218       1.21580063
Si      -1.32586860       0.33346049       3.34616081
Si       1.53898530      -0.45915838       8.01499040
Si       6.16856030      -3.09280910       7.05862739
Si       6.58978642       3.27125198       2.38979780
Si      -3.41585334       3.80871272       4.38402620
Si      -0.15551171       2.14941379       0.03229464
Si      -2.39790959       2.29866904       2.72336402
Si      -0.69957630      -0.47174773       7.39219361
Si      -2.87673093       2.15810257       6.07162900
Si       1.54988726       2.47618774       1.71989745
Si       1.06955706       3.84049065       3.54723170
Si      -4.30311814       1.91839645       7.89896326
Si       3.60724658       1.32303491       1.18660724
Si      -0.87213874       0.91548477       5.53833880
Si      -1.66767242       4.21733706       6.05846889
Si       0.33267659       0.42176146       1.70673733
18
Lattice="7.353731986605152 -0.48405966649595805 0.3914142455352246 -3.9815093200385694 6.201553952518163 -0.39141424553536586 -2.2732273518972255 -2.5124615418665934 8.934321530385738" Properties=species:S:1:pos:R:3 unique_starting_index=64 config_type=initial n_minim_iter=11 stress="-0.0013941011803782607 0.0009911466031904221 -0.001745380366473154 0.0009911466031904221 -0.00029823021059046376 0.0010294389358624539 -0.001745380366473154 0.0010294389358624539 0.002152580275536557" pbc="T T T"
Si       0.31235965       2.93805587       5.50641860
Si       2.39331261      -0.68065370       1.23496495
Si      -1.31119302       0.31365389       3.29639081
Si       1.63137227      -0.50249810       7.95925869
Si       6.27811375      -3.14622738       7.04127163
Si       6.62291917       3.24355515       2.37840374
Si      -3.40445664       3.82467145       4.32292152
Si      -0.18089161       2.14322362       0.05146788
Si      -2.39344542       2.30221419       2.68207691
Si      -0.63256651      -0.51744878       7.34494479
Si      -2.80477336       2.12834881       5.97984004
Si       1.59381396       2.43911321       1.70838640
Si       1.03084322       3.85059414       3.46691548
Si      -4.31243235       1.93814143       7.73836913
Si       3.67141221       1.30944237       1.22009857
Si      -0.81093988       0.85665751       5.49155221
Si      -1.62019624       4.17528557       5.97346125
Si       0.37552132       0.41206214       1.70200761
18
Lattice="7.39581596063105 -0.5147083919789317 0.4385138713922822 -4.028693134375152 6.223556063966703 -0.4385138713924235 -2.2178857858575367 -2.5392751588147897 8.870796036789528" Properties=species:S:1:pos:R:3 unique_starting_index=64 config_type=initial n_minim_iter=12 stress="0.0008130548049965615 -0.0005172243730228065 0.00048334736969626174 -0.0005172243730228065 0.00024118060047357423 -0.0002850820437022445 0.00048334736969626174 -0.0002850820437022445 -0.0002948230786957747" pbc="T T T"
Si       0.35449150       2.92199228       5.46095181
Si       2.42112635      -0.71167183       1.24481073
Si      -1.30650275       0.29028763       3.27283027
Si       1.70280369      -0.52402901       7.92748523
Si       6.35517648      -3.18994159       7.02418803
Si       6.64464825       3.21734664       2.36953307
Si      -3.40552967       3.82100590       4.26599716
Si      -0.18483158       2.14401861       0.04985608
Si      -2.40777068       2.30586988       2.64838482
Si      -0.59398392      -0.53541163       7.30303977
Si      -2.77403881       2.10789262       5.91537426
Si       1.61995773       2.42019486       1.69923318
Si       1.03802504       3.84756896       3.43450617
Si      -4.30478114       1.92659071       7.65064726
Si       3.69161814       1.29663292       1.23551512
Si      -0.78842449       0.83844232       5.45165620
Si      -1.60670189       4.15735053       5.90418914
Si       0.39111752       0.40701207       1.68804806
18
Lattice="7.420439982263988 -0.5317724761750122 0.47729045103362916 -4.055540646825703 6.236850291512819 -0.4772904510337769 -2.1718085622829113 -2.56391121977257 8.817986791888009" Properties=species:S:1:pos:R:3 unique_starting_index=64 config_type=initial n_minim_iter=13 stress="-0.00031078270185088287 8.658719038959736e-05 0.0007407366497231684 8.658719038959736e-05 -0.00021504672495638658 -0.0004368922460078162 0.0007407366497231684 -0.0004368922460078162 -0.003487896529184239" pbc="T T T"
Si       0.37839356       2.88920884       5.40551673
Si       2.45065503      -0.71294291       1.23516856
Si      -1.29351732       0.27254303       3.25354039
Si       1.75996641      -0.54765834       7.90117901
Si       6.40543390      -3.21292123       6.99693113
Si       6.65150069       3.20156116       2.34929251
Si      -3.38516310       3.84088022       4.24183588
Si      -0.20309782       2.12036485       0.07148771
Si      -2.41058246       2.30891626       2.63428440
Si      -0.56265978      -0.55527482       7.28192302
Si      -2.71732954       2.07109901       5.87383806
Si       1.66886875       2.39215215       1.70348989
Si       0.97680214       3.86432292       3.38476333
Si      -4.34056137       1.96450930       7.55511150
Si       3.72711586       1.28199078       1.23909445
Si      -0.74993257       0.80690416       5.40944262
Si      -1.57097653       4.12987059       5.86026743
Si       0.42172510       0.39282769       1.68991926
18
Lattice="7.466474370636986 -0.5812627979766644 0.520928736766309 -4.121125309980887 6.25319375576395 -0.5209287367664595 -2.11705671485193 -2.5738654049268836 8.819503503278321" Properties=species:S:1:pos:R:3 unique_starting_index=64 config_type=initial n_minim_iter=14 stress="-0.0007361062321939945 -0.0004968615608408714 0.003905549682426867 -0.0004968615608408714 -0.001285466093568936 -0.0023035236251459025 0.003905549682426867 -0.0023035236251459025 -0.0032465888325291683" pbc="T T T"
Si       0.37530826       2.87964782       5.36034154
Si       2.45317108      -0.72538502       1.21105415
Si      -1.30362504       0.26338734       3.27123793
Si       1.81348199      -0.56410494       7.94145405
Si       6.50419769      -3.24489241       7.00549269
Si       6.65732125       3.12716991       2.33527657
Si      -3.36371527       3.82294113       4.24509797
Si      -0.18137996       2.09050560       0.09581058
Si      -2.43876723       2.28941214       2.65621571
Si      -0.50883362      -0.55089420       7.32643183
Si      -2.68346973       2.02282143       5.87554154
Si       1.72314303       2.36610868       1.72625416
Si       0.94479103       3.84549723       3.36722057
Si      -4.35476485       1.98825384       7.51650796
Si       3.71995573       1.24507644       1.24578259
Si      -0.73628207       0.81765155       5.39506997
Si      -1.56996920       4.10921102       5.82907291
Si       0.43593433       0.38217353       1.67978553
18
Lattice="7.518417064175796 -0.6122213996066609 0.48787043330598323 -4.173350154521527 6.283673979510788 -0.4878704333061349 -2.165032597769697 -2.545246459100824 8.858207474105525" Properties=species:S:1:pos:R:3 unique_starting_index=64 config_type=initial n_minim_iter=15 stress="0.0008035182594127246 0.0009487565770067444 -0.0023338887897379978 0.0009487565770067444 0.0018525202806989529 0.0013765457881144709 -0.0023338887897379978 0.0013765457881144709 0.003687631522750518" pbc="T T T"
Si       0.33090945       2.91390726       5.37206247
Si       2.45166661      -0.73289275       1.18689395
Si      -1.36046089       0.30035879       3.28566588
Si       1.75561090      -0.53342134       7.95870483
Si       6.54137883      -3.21869090       6.94838319
Si       6.65011392       3.08264481       2.27534423
Si      -3.38555054       3.83118794       4.33743182
Si      -0.14920234       2.07583640       0.15226330
Si      -2.48076248       2.28009513       2.72516287
Si      -0.51901436      -0.51080338       7.39820183
Si      -2.71862818       2.03675409       5.93131336
Si       1.74389858       2.36034858       1.74614484
Si       0.87314638       3.85878514       3.33116950
Si      -4.45129850       2.07383641       7.51633802
Si       3.74158466       1.22961177       1.26615500
Si      -0.76252484       0.83551509       5.45132352
Si      -1.63341968       4.13418874       5.86225045
Si       0.43333536       0.39582989       1.67708192
18
Lattice="7.552758685254311 -0.6828031827615878 0.514911453150061 -4.251736206893019 6.2795798562537986 -0.5149114531502118 -2.1173462238536236 -2.5230454263543463 8.836839583244867" Properties=species:S:1:pos:R:3 unique_starting_index=64 config_type=initial n_minim_iter=16 stress="-0.002091129485550405 0.0001881272525482729 -0.00175032233931408 0.0001881272525482729 -0.001883124742326755 0.0010323537499378366 -0.00175032233931408 0.0010323537499378366 -0.00356325589321677" pbc="T T T"
Si       0.31094276       2.92756611       5.32493043
Si       2.42338018      -0.76841836       1.16396637
Si      -1.35125046       0.29796889       3.28437137
Si       1.80317264      -0.56451611       7.96024689
Si       6.60819708      -3.21364128       6.91379149
Si       6.59296417       2.97123899       2.23791597
Si      -3.33379303       3.77238111       4.34029741
Si      -0.07936759       2.01260033       0.17933335
Si      -2.53873837       2.25459583       2.70529311
Si      -0.48373404      -0.47191806       7.38116863
Si      -2.72807929       1.98786140       5.95046823
Si       1.77544289       2.34588369       1.78950416
Si       0.81318783       3.81524821       3.26828581
Si      -4.47957751       2.11908971       7.42924987
Si       3.75487030       1.16464646       1.30590870
Si      -0.73661349       0.82703488       5.46687277
Si      -1.66723958       4.15047907       5.84562312
Si       0.39604350       0.37115500       1.68465905
18
Lattice="7.592541226745885 -0.7244248658688329 0.5670319241868449 -4.307409726159717 6.294258901340922 -0.567031924186995 -2.053036218802238 -2.5428183380315614 8.835888252737945" Properties=species:S:1:pos:R:3 unique_starting_index=64 config_type=initial n_minim_iter=17 stress="0.000616075403890593 -0.0006963362245777907 0.00031608243999904905 -0.0006963362245777907 -0.00015383557726156177 -0.0001864278852511187 0.00031608243999904905 -0.0001864278852511187 -0.0012959996761983572" pbc="T T T"
Si       0.32888389       2.90521091       5.29993915
Si       2.43936127      -0.78422837       1.16551098
Si      -1.33415113       0.28848961       3.28201814
Si       1.87178785      -0.60559194       7.98347823
Si       6.68925257      -3.23966166       6.93196370
Si       6.58701532       2.91664563       2.23050361
Si      -3.30230391       3.76220665       4.33775343
Si      -0.06749192       1.97904028       0.20332527
Si      -2.55233749       2.24513634       2.69437128
Si      -0.42998863      -0.48613717       7.39583137
Si      -2.68356995       1.94740525       5.95053823
Si       1.82011956       2.31557961       1.81611007
Si       0.74627797       3.81370542       3.21824927
Si      -4.51422682       2.16237526       7.35267744
Si       3.79577911       1.12869614       1.33415393
Si      -0.68898570       0.79260799       5.46858210
Si      -1.64382051       4.13162643       5.83696718
Si       0.41160959       0.34885626       1.70253901
18
Lattice="7.569054349132579 -0.7179562030397104 0.5611219634848776 -4.290385159879911 6.276833598996233 -0.5611219634850279 -2.0561211736391165 -2.5336147270991187 8.894659858382143" Properties=species:S:1:pos:R:3 unique_starting_index=64 config_type=initial n_minim_iter=18 stress="0.0006124017178857441 -0.0002600463743105842 0.0017327714125576767 -0.0002600463743105842 0.0003248788918084612 -0.0010220020766267075 0.0017327714125576767 -0.0010220020766267075 0.0021564240166807806" pbc="T T T"
Si       0.31922254       2.91714961       5.33659113
Si       2.41403759      -0.78291672       1.16982218
Si      -1.31635578       0.28826267       3.31354357
Si       1.86731028      -0.61321993       8.04143448
Si       6.65887704      -3.22318907       6.97649438
Si       6.56472638       2.91646680       2.24860347
Si      -3.28719699       3.73851055       4.35709722
Si      -0.04964580       1.97591633       0.19032827
Si      -2.54434170       2.23699207       2.69726695
Si      -0.43227843      -0.48135833       7.42515786
Si      -2.69453752       1.94669905       6.00289091
Si       1.80523032       2.32415228       1.83612196
Si       0.74740657       3.80693051       3.24304993
Si      -4.50401295       2.15507621       7.40981887
Si       3.78058007       1.12522583       1.33010309
Si      -0.68956353       0.79799954       5.49687204
Si      -1.63449567       4.14212694       5.89662520
Si       0.39673045       0.33424764       1.72985626
18
Lattice="7.602908515816237 -0.7526354051743844 0.5375752866348728 -4.337114580859021 6.289683224574428 -0.5375752866350222 -2.084077132612757 -2.50241433381616 8.912795066754288" Properties=species:S:1:pos:R:3 unique_starting_index=64 config_type=initial n_minim_iter=19 stress="0.0016705181109797295 0.000251396148443146 -0.0006854212671615073 0.000251396148443146 0.0019484767299258853 0.00040426680248863394 -0.0006854212671615073 0.00040426680248863394 0.003146393909823043" pbc="T T T"
Si       0.27577634       2.97833471       5.33873341
Si       2.37037531      -0.80743631       1.15112352
Si      -1.33689144       0.31045826       3.35250045
Si       1.84089897      -0.60772583       8.07768562
Si       6.68109513      -3.20103541       6.92728841
Si       6.54026338       2.86621369       2.20210323
Si      -3.29578235       3.69239979       4.39079648
Si       0.01746017       1.97279943       0.20318659
Si      -2.56343980       2.21457976       2.71541211
Si      -0.41895481      -0.45554019       7.44059728
Si      -2.73593422       1.96269620       6.05203286
Si       1.80210668       2.31970182       1.86442297
Si       0.68908523       3.81660674       3.21774072
Si      -4.58447857       2.21254586       7.40535061
Si       3.76706732       1.10165682       1.31353385
Si      -0.71925473       0.83233884       5.50114374
Si      -1.66538979       4.17769436       5.94855824
Si       0.38156088       0.31113719       1.76094835
18
Lattice="7.632062065994154 -0.7721424565389752 0.555789161035798 -4.36829157239803 6.30575959666186 -0.5557891610359472 -2.0635310360699033 -2.5122205212250406 8.8620354742667" Properties=species:S:1:pos:R:3 unique_starting_index=64 config_type=initial n_minim_iter=20 stress="0.0002531796098711734 0.00041827297673267274 0.00013738608231116128 0.00041827297673267274 0.0007156472318898715 -8.103138152398378e-05 0.00013738608231116128 -8.103138152398378e-05 0.0005218746420541752" pbc="T T T"
Si       0.28886025       2.99389312       5.31461185
Si       2.36739306      -0.83126481       1.16148869
Si      -1.34501194       0.31319952       3.33708131
Si       1.85942088      -0.61660192       8.04599363
Si       6.73323890      -3.21939907       6.89114519
Si       6.55468955       2.84068976       2.18223287
Si      -3.30970707       3.66636922       4.35641159
Si       0.03780797       1.99272955       0.20328843
Si      -2.55323832       2.20151731       2.68933626
Si      -0.37773747      -0.47280496       7.39824858
Si      -2.72920216       1.97578549       6.01002866
Si       1.79821217       2.30262685       1.85690550
Si       0.67803285       3.82284185       3.17846172
Si      -4.60160986       2.22062164       7.33158487
Si       3.77053940       1.09321758       1.31695476
Si      -0.71651629       0.83480300       5.47007792
Si      -1.65868562       4.17176830       5.91908508
Si       0.39429451       0.30328663       1.76596192
18
Lattice="7.670014681748121 -0.8044531788820293 0.566200488694624 -4.414931083363025 6.3233419695916995 -0.5662004886947719 -2.0506310123051517 -2.5099030817889743 8.80954776024421" Properties=species:S:1:pos:R:3 unique_starting_index=64 config_type=initial n_minim_iter=21 stress="-0.0009560420579841572 -0.0011204225983766373 -0.0007506964450537585 -0.0011204225983766373 -0.0021948483006775906 0.0004427666108738295 -0.0007506964450537585 0.0004427666108738295 -0.0022964487554010538" pbc="T T T"
Si       0.29427315       3.02497170       5.28240468
Si       2.35533924      -0.86835249       1.16073104
Si      -1.36165256       0.30240861       3.32643522
Si       1.88624001      -0.61181438       8.01430935
Si       6.79209902      -3.24161147       6.82420010
Si       6.56849357       2.80019234       2.13632598
Si      -3.32893652       3.62691709       4.33265467
Si       0.07555793       2.01133216       0.21098104
Si      -2.55605303       2.18678172       2.65510944
Si      -0.34077685      -0.47820889       7.34298357
Si      -2.72216921       1.99386672       5.98269846
Si       1.79831703       2.27040971       1.86102482
Si       0.64202101       3.83951532       3.13970623
Si      -4.65483836       2.24665683       7.26137987
Si       3.75811832       1.07158700       1.32701144
Si      -0.72480864       0.85872455       5.44868507
Si      -1.67231137       4.16806359       5.89900818
Si       0.40347065       0.29968977       1.77733455
