14
Lattice="16.31987768822516 -1.2153642767770219 3.0133823724563706 -1.9260348037277306 8.645326474399578 1.5868388437725582 -2.2347188567479983 1.4919105626036375 4.376530574937378" Properties=species:S:1:pos:R:3 unique_starting_index=20 config_type=initial n_minim_iter=1 energy=-2284.7891277193708 free_energy=-2284.7891277193708 pbc="T T T"
Si       8.80462291       5.86192704       6.92795353
Si      10.85802519       2.53688786       3.06325073
Si       3.35450112       3.05994572       2.04879826
Si       1.30109884       6.38498490       5.91350107
Si      10.28242187       4.94643363       5.99946078
Si      10.93504453       3.51723547       4.76740538
Si       1.87670216       3.97543913       2.97729101
Si       1.22407950       5.40463730       4.20934641
Si       3.48023970       4.90417849       3.49355331
Si       2.65071278       4.58424424       5.20727733
Si       8.67888433       4.01769427       5.48319848
Si       9.50841124       4.33762852       3.76947446
Si       7.25688456       4.09686648       3.71926437
Si       4.90223947       4.82500628       5.25748742
14
Lattice="16.321941591842613 -1.2129846560199078 3.0121745334872316 -1.9252076704907999 8.644255414760782 1.5867991413622493 -2.234826847685471 1.4917583640325012 4.374947375597364" Properties=species:S:1:pos:R:3 unique_starting_index=20 config_type=initial n_minim_iter=2 stress="-0.00026176568971915187 -9.185628649835397e-06 0.0002244540303423242 -9.185628649835397e-06 -0.00024739658012730816 -4.656339401235331e-05 0.0002244540303423242 -4.656339401235331e-05 -0.00028806992178344196" pbc="T T T"
Si       8.80654609       5.86277877       6.92569980
Si      10.85978176       2.53826104       3.06218436
Si       3.35536099       3.06025035       2.04822125
Si       1.30212532       6.38476809       5.91173669
Si      10.28445220       4.94764115       5.99749815
Si      10.93700230       3.51855129       4.76585497
Si       1.87745487       3.97538797       2.97642290
Si       1.22490478       5.40447784       4.20806608
Si       3.48137368       4.90438227       3.49256933
Si       2.65156911       4.58444048       5.20550365
Si       8.68053339       4.01864686       5.48135172
Si       9.51033797       4.33858864       3.76841740
Si       7.25837968       4.09759368       3.71804728
Si       4.90352739       4.82543544       5.25587377
14
Lattice="16.32675827137676 -1.2111050236646121 3.0086888964521985 -1.9252433079947204 8.645350841768005 1.5879124223344543 -2.2362896482483534 1.4921269340918255 4.375314403322775" Properties=species:S:1:pos:R:3 unique_starting_index=20 config_type=initial n_minim_iter=3 stress="0.00033250266496611855 0.00010594685659347092 -4.4284697744805765e-05 0.00010594685659347092 -4.806025110854601e-05 0.00015273588811893216 -4.4284697744805765e-05 0.00015273588811893216 7.528251107795422e-05" pbc="T T T"
Si       8.80876892       5.86507651       6.92414600
Si      10.86304347       2.54014483       3.05999806
Si       3.35645640       3.06129625       2.04776972
Si       1.30218185       6.38622792       5.91191767
Si      10.28725273       4.95006487       5.99561179
Si      10.94025353       3.52064361       4.76389364
Si       1.87797258       3.97630788       2.97630393
Si       1.22497178       5.40572915       4.20802208
Si       3.48245325       4.90586569       3.49219047
Si       2.65176442       4.58582724       5.20505573
Si       8.68277206       4.02050707       5.47972525
Si       9.51346089       4.34054551       3.76685999
Si       7.26053418       4.09930186       3.71665161
Si       4.90469114       4.82707089       5.25526412
14
Lattice="16.322511315922025 -1.214267491493756 2.9935713135561466 -1.9267253712604837 8.653739435263219 1.5850028471721662 -2.2397356474771724 1.492037428339399 4.373568714591899" Properties=species:S:1:pos:R:3 unique_starting_index=20 config_type=initial n_minim_iter=4 stress="-0.0003281028004563505 -6.359118921071591e-05 -0.0007478973614187007 -6.359118921071591e-05 0.00021651380592089235 -6.553638954191139e-05 -0.0007478973614187007 -6.553638954191139e-05 -0.0005759306013175088" pbc="T T T"
Si       8.80147587       5.86731511       6.90952140
Si      10.85824076       2.54179752       3.04687678
Si       3.35457442       3.06419426       2.04262147
Si       1.29780954       6.38971185       5.90526609
Si      10.27975025       4.95288449       5.98062883
Si      10.93607307       3.52178488       4.75141059
Si       1.87630005       3.97862488       2.97151405
Si       1.21997723       5.40972450       4.20073229
Si       3.47876528       4.91024392       3.48519733
Si       2.64546451       4.58830237       5.19679446
Si       8.67728501       4.02126545       5.46694555
Si       9.51058579       4.34320700       3.75534842
Si       7.25634596       4.10206681       3.70487875
Si       4.89970434       4.82944256       5.24726412
14
Lattice="16.32906087153979 -1.2167429869825495 2.993505008503878 -1.9271438479417569 8.66423250372802 1.5801780478035796 -2.240672353008162 1.4915447141045424 4.3722639591721615" Properties=species:S:1:pos:R:3 unique_starting_index=20 config_type=initial n_minim_iter=5 stress="0.0005365167517599748 -0.000253480962157899 0.00019974111797231572 -0.000253480962157899 0.0003208697387078405 -0.0002017390937065621 0.00019974111797231572 -0.0002017390937065621 -0.00038412884721594125" pbc="T T T"
Si       8.80456133       5.87027425       6.90498746
Si      10.86103040       2.54556058       3.04322548
Si       3.35668334       3.06875998       2.04095955
Si       1.30021428       6.39347365       5.90272153
Si      10.28215222       4.95772993       5.97642762
Si      10.94282044       3.52404432       4.75111623
Si       1.87909245       3.98130430       2.96951939
Si       1.21842423       5.41498991       4.19483078
Si       3.48010831       4.91665185       3.48280119
Si       2.64421479       4.59144218       5.19260829
Si       8.68113636       4.02238239       5.46314582
Si       9.51702988       4.34759205       3.75333873
Si       7.25922627       4.10641661       3.69922050
Si       4.90201840       4.83261762       5.24672652
14
Lattice="16.32214368758058 -1.212588207149731 2.9913051919975358 -1.9245238612266808 8.66446494140984 1.5812652130441989 -2.240276021884541 1.4912307627700396 4.373982730907582" Properties=species:S:1:pos:R:3 unique_starting_index=20 config_type=initial n_minim_iter=6 stress="-3.4450932272795777e-05 -8.020026543524354e-05 -4.1443382569001803e-05 -8.020026543524354e-05 -0.00039391586322815774 0.00017221149277290004 -4.1443382569001803e-05 0.00017221149277290004 8.912563222826923e-05" pbc="T T T"
Si       8.80127618       5.87270667       6.90549141
Si      10.85654381       2.54922141       3.04184730
Si       3.35606763       3.07040082       2.04106173
Si       1.30079999       6.39388609       5.90470583
Si      10.27797389       4.96123289       5.97622372
Si      10.93932890       3.52720794       4.75119642
Si       1.87936991       3.98187461       2.97032941
Si       1.21801491       5.41589955       4.19535672
Si       3.47935708       4.91858064       3.48375271
Si       2.64262535       4.59265888       5.19336520
Si       8.67798672       4.02452686       5.46280043
Si       9.51471846       4.35044862       3.75318793
Si       7.25689095       4.10891243       3.69819453
Si       4.90045285       4.83419506       5.24835860
14
Lattice="16.318310018635795 -1.2089545019461418 2.9907634766587208 -1.9215579202646451 8.668713277207488 1.5795057995868655 -2.2396028971344726 1.4904740338468208 4.373887318795171" Properties=species:S:1:pos:R:3 unique_starting_index=20 config_type=initial n_minim_iter=7 stress="-0.0001648402071804052 0.00031394300009023843 0.000131835930671325 0.00031394300009023843 0.00023421303834547197 2.8081179983879964e-05 0.000131835930671325 2.8081179983879964e-05 2.460644542400795e-05" pbc="T T T"
Si       8.80070618       5.87725199       6.90390809
Si      10.85451759       2.55384761       3.04085429
Si       3.35644302       3.07298082       2.04024850
Si       1.30263162       6.39638520       5.90330230
Si      10.27688079       4.96624960       5.97455837
Si      10.93835136       3.53156404       4.75027896
Si       1.88026841       3.98398321       2.96959822
Si       1.21879784       5.41866877       4.19387764
Si       3.47996430       4.92231831       3.48317959
Si       2.64272501       4.59514714       5.19194629
Si       8.67718490       4.02791450       5.46097700
Si       9.51442420       4.35508567       3.75221031
Si       7.25658062       4.11300379       3.69630704
Si       4.90056858       4.83722902       5.24784956
14
Lattice="16.319145270429118 -1.214723286865985 2.9847615133383245 -1.9245476177807759 8.671661072712853 1.5766413246066926 -2.2418996921735332 1.4897985356553087 4.373861300746952" Properties=species:S:1:pos:R:3 unique_starting_index=20 config_type=initial n_minim_iter=8 stress="6.555447839998498e-05 -9.061798921691719e-07 -1.7654321677598564e-05 -9.061798921691719e-07 -3.350691330027421e-05 -4.289881838937144e-06 -1.7654321677598564e-05 -4.289881838937144e-06 1.2379352625017457e-05" pbc="T T T"
Si       8.79696689       5.87397842       6.89787492
Si      10.85307580       2.55188410       3.03581190
Si       3.35573107       3.07275790       2.03738922
Si       1.29962216       6.39485223       5.89945224
Si      10.27413020       4.96315181       5.96778366
Si      10.93757417       3.52787470       4.74469898
Si       1.87856776       3.98358451       2.96748048
Si       1.21512379       5.41886162       4.19056516
Si       3.47764750       4.92260844       3.48078373
Si       2.63929998       4.59412497       5.18802042
Si       8.67505046       4.02412788       5.45448041
Si       9.51339798       4.35261135       3.74724372
Si       7.25517169       4.11159976       3.69040531
Si       4.89752628       4.83513657       5.24485883
14
Lattice="16.313263263896857 -1.2174506321629144 2.984176747328957 -1.9248150767563743 8.67643959364188 1.575644030254752 -2.2414227317456343 1.4903314448733784 4.373655609067385" Properties=species:S:1:pos:R:3 unique_starting_index=20 config_type=initial n_minim_iter=9 stress="5.968223127740364e-06 -3.997656778305153e-06 -1.030156679451736e-05 -3.997656778305153e-06 -1.2484650427188122e-05 -5.7252581163328324e-06 -1.030156679451736e-05 -5.7252581163328324e-06 -1.491513644362202e-05" pbc="T T T"
Si       8.79247185       5.87540829       6.89699497
Si      10.84853158       2.55273905       3.03491339
Si       3.35455360       3.07391212       2.03648142
Si       1.29849387       6.39658136       5.89856300
Si      10.26977633       4.96394007       5.96666399
Si      10.93350116       3.52803930       4.74350886
Si       1.87724913       3.98538034       2.96681240
Si       1.21352430       5.42128111       4.18996753
Si       3.47613217       4.92524612       3.47975170
Si       2.63747090       4.59599474       5.18733786
Si       8.67089329       4.02407428       5.45372469
Si       9.50955456       4.35332567       3.74613853
Si       7.25256261       4.11332727       3.68869403
Si       4.89446285       4.83599313       5.24478235
14
Lattice="16.306288698358994 -1.2203729193129833 2.985450146656685 -1.9247753225708706 8.68317177639384 1.5748884275058628 -2.240406101052832 1.4912464893196224 4.374093753570374" Properties=species:S:1:pos:R:3 unique_starting_index=20 config_type=initial n_minim_iter=10 stress="-8.288416941572113e-05 -5.558999013517662e-05 1.2301004381328513e-05 -5.558999013517662e-05 7.291368318708934e-05 0.0001221462341081053 1.2301004381328513e-05 0.0001221462341081053 -5.462461986364108e-05" pbc="T T T"
Si       8.78822274       5.87826291       6.89779000
Si      10.84340760       2.55462871       3.03508044
Si       3.35288453       3.07578244       2.03664232
Si       1.29769967       6.39941664       5.89935189
Si      10.26500189       4.96553363       5.96767194
Si      10.92894967       3.52942646       4.74416155
Si       1.87610538       3.98851172       2.96676039
Si       1.21215761       5.42461889       4.19027078
Si       3.47457475       4.92924350       3.47961177
Si       2.63651332       4.59932516       5.18709172
Si       8.66653253       4.02480185       5.45482056
Si       9.50459396       4.35472018       3.74734061
Si       7.25012333       4.11670490       3.68782539
Si       4.89098394       4.83734044       5.24660694
14
Lattice="16.304631847187988 -1.2202844173988097 2.986264229330201 -1.9237723460672995 8.684154859538191 1.5715946036458688 -2.2401391231552537 1.4894934990341042 4.37439571418788" Properties=species:S:1:pos:R:3 unique_starting_index=20 config_type=initial n_minim_iter=11 stress="-2.130765905349002e-05 6.196052552537817e-05 -4.781289210107463e-05 6.196052552537817e-05 -9.682899935534501e-05 -0.00012149132119824681 -4.781289210107463e-05 -0.00012149132119824681 4.0433291808007065e-06" pbc="T T T"
Si       8.78789217       5.87740024       6.89648289
Si      10.84250484       2.55579695       3.03416911
Si       3.35282821       3.07596370       2.03577166
Si       1.29821554       6.39756700       5.89808543
Si      10.26444082       4.96465645       5.96668463
Si      10.92845697       3.52948955       4.74331667
Si       1.87627956       3.98870749       2.96556991
Si       1.21226340       5.42387439       4.18893788
Si       3.47490037       4.92967423       3.47789856
Si       2.63682395       4.59877084       5.18576627
Si       8.66582001       4.02368971       5.45435599
Si       9.50389643       4.35459310       3.74648828
Si       7.25039352       4.11760103       3.68590472
Si       4.89032686       4.83576291       5.24634982
14
Lattice="16.305525551828303 -1.2245321412377574 2.9920909021837407 -1.924694773477892 8.691338650763 1.5697981343049203 -2.239133933842108 1.49018831385674 4.374928701871212" Properties=species:S:1:pos:R:3 unique_starting_index=20 config_type=initial n_minim_iter=12 stress="-3.891364127569184e-05 -3.723847758107965e-06 -2.8862053882786735e-06 -3.723847758107965e-06 3.988024675224878e-06 2.3060834884140943e-05 -2.8862053882786735e-06 2.3060834884140943e-05 -9.099157678491117e-06" pbc="T T T"
Si       8.78869943       5.87942536       6.90007962
Si      10.84274152       2.55699905       3.03716587
Si       3.35299741       3.07756946       2.03673812
Si       1.29895532       6.39999578       5.89965187
Si      10.26500633       4.96471886       5.97070102
Si      10.92947397       3.53050159       4.74683620
Si       1.87669051       3.99227596       2.96611672
Si       1.21222288       5.42649323       4.18998154
Si       3.47520846       4.93314757       3.47863351
Si       2.63745365       4.60215291       5.18619304
Si       8.66648839       4.02384725       5.45818423
Si       9.50424320       4.35484191       3.75062470
Si       7.25160866       4.12104524       3.68678934
Si       4.89008818       4.83594958       5.25002840
14
Lattice="16.315023043061196 -1.2301748048364785 2.999472420605067 -1.9268717063350491 8.698298533006692 1.5660230351366622 -2.239010379232563 1.4900401293648702 4.375083469695323" Properties=species:S:1:pos:R:3 unique_starting_index=20 config_type=initial n_minim_iter=13 stress="2.650029556018227e-05 -2.402045588008454e-05 2.9637941974046644e-05 -2.402045588008454e-05 2.0151544320795374e-05 5.215108494156701e-05 2.9637941974046644e-05 5.215108494156701e-05 4.482660369220571e-06" pbc="T T T"
Si       8.79447916       5.87902202       6.90329304
Si      10.84901604       2.55674655       3.04073211
Si       3.35466180       3.07914184       2.03728588
Si       1.30012491       6.40141730       5.89984682
Si      10.27037909       4.96274836       5.97493432
Si      10.93632537       3.53047501       4.75013331
Si       1.87876187       3.99541550       2.96564461
Si       1.21281559       5.42768885       4.19044561
Si       3.47767402       4.93480788       3.47913092
Si       2.63888450       4.60454019       5.18601134
Si       8.67146694       4.02335598       5.46144801
Si       9.51025646       4.35362366       3.75456759
Si       7.25611142       4.12394118       3.68816829
Si       4.89302954       4.83422268       5.25241063
14
Lattice="16.316588034585546 -1.234120079810518 2.997215296789836 -1.928224126138515 8.704177879117562 1.5622109609817758 -2.240118204095 1.4893507485230706 4.374413137421267" Properties=species:S:1:pos:R:3 unique_starting_index=20 config_type=initial n_minim_iter=14 stress="1.7418397234513785e-05 2.0094706618926692e-05 -7.302398629460697e-06 2.0094706618926692e-05 -5.793898355070997e-05 -4.070748121269915e-05 -7.302398629460697e-06 -4.070748121269915e-05 1.4061038057784491e-05" pbc="T T T"
Si       8.79387293       5.87791805       6.89923329
Si      10.85011788       2.55633629       3.03738568
Si       3.35437278       3.08149050       2.03460611
Si       1.29812782       6.40307225       5.89645372
Si      10.26966115       4.96181810       5.97091108
Si      10.93692719       3.53085404       4.74640701
Si       1.87858455       3.99759045       2.96292831
Si       1.21131851       5.42855451       4.18743238
Si       3.47832281       4.93540792       3.47710459
Si       2.63730193       4.60567747       5.18336938
Si       8.66992290       4.02400063       5.45673481
Si       9.51094378       4.35373108       3.75047001
Si       7.25585640       4.12620317       3.68577416
Si       4.89238931       4.83320538       5.24806524
14
Lattice="16.31215719943184 -1.2367460654353095 2.9963014884824326 -1.927902168356554 8.714920098670428 1.559616790178347 -2.2399794436863405 1.4898211833416366 4.374509979415084" Properties=species:S:1:pos:R:3 unique_starting_index=20 config_type=initial n_minim_iter=15 stress="-2.1206564259689063e-05 -3.283910941152396e-05 1.0155421272793602e-05 -3.283910941152396e-05 1.9725460872083327e-05 4.624702256849312e-05 1.0155421272793602e-05 4.624702256849312e-05 -2.1374226090750558e-05" pbc="T T T"
Si       8.79098439       5.88206932       6.89743310
Si      10.84702868       2.55993157       3.03511260
Si       3.35329120       3.08592589       2.03299516
Si       1.29724691       6.40806365       5.89531566
Si      10.26642216       4.96557310       5.96909349
Si      10.93407120       3.53440411       4.74442671
Si       1.87785343       4.00242212       2.96133477
Si       1.21020439       5.43359111       4.18600155
Si       3.47749478       4.94040755       3.47571379
Si       2.63640601       4.61057947       5.18165427
Si       8.66678080       4.02758767       5.45471446
Si       9.50786958       4.35741575       3.74877399
Si       7.25403836       4.13204961       3.68332463
Si       4.89023723       4.83594561       5.24710363
14
Lattice="16.311560306130232 -1.2334011922270205 2.994049539000989 -1.9240726384135616 8.731230259155108 1.5542470778057755 -2.240297716412223 1.4888288818956312 4.374661496481311" Properties=species:S:1:pos:R:3 unique_starting_index=20 config_type=initial n_minim_iter=16 stress="-1.271238161429533e-05 -9.069133826046838e-06 5.541189897546228e-06 -9.069133826046838e-06 1.1455967987312825e-05 1.5342993958434507e-05 5.541189897546228e-06 1.5342993958434507e-05 -4.083945778995735e-06" pbc="T T T"
Si       8.79260834       5.89142866       6.89395909
Si      10.84786681       2.57011832       3.03049627
Si       3.35458161       3.09522929       2.02899902
Si       1.29932314       6.41653963       5.89246184
Si      10.26862614       4.97616429       5.96464651
Si      10.93474785       3.54460597       4.74005965
Si       1.87856381       4.01049366       2.95831160
Si       1.21244210       5.44205198       4.18289846
Si       3.47854589       4.94797793       3.47255201
Si       2.63813341       4.61877769       5.17899073
Si       8.66864406       4.03868002       5.45040610
Si       9.50905654       4.36788025       3.74396738
Si       7.25466753       4.14335482       3.67914640
Si       4.89252242       4.84330313       5.24381171
14
Lattice="16.3120428380671 -1.2309780503578756 2.992325673093425 -1.921998258426041 8.739124972980642 1.5519325050799893 -2.2406401107155753 1.4884032457742684 4.374682325598474" Properties=species:S:1:pos:R:3 unique_starting_index=20 config_type=initial n_minim_iter=17 stress="-2.900251057510403e-06 -2.5095732098026084e-06 6.804247093869248e-08 -2.5095732098026084e-06 -6.6975942687652096e-06 -1.3535725500560418e-06 6.804247093869248e-08 -1.3535725500560418e-06 2.591175088984444e-06" pbc="T T T"
Si       8.79409455       5.89651851       6.89185727
Si      10.84890451       2.57563294       3.02798928
Si       3.35530992       3.10003166       2.02708323
Si       1.30049996       6.42091723       5.89095122
Si      10.27013301       4.98208283       5.96232575
Si      10.93569557       3.55001176       4.73745680
Si       1.87927146       4.01446734       2.95661475
Si       1.21370890       5.44653840       4.18148370
Si       3.47926895       4.95179165       3.47103793
Si       2.63916223       4.62291777       5.17765881
Si       8.67013552       4.04475852       5.44790257
Si       9.51024224       4.37363240       3.74128169
Si       7.25541581       4.14893936       3.67702846
Si       4.89398866       4.84761081       5.24191204
14
Lattice="16.314771514572215 -1.2261464265240294 2.9898124452558097 -1.918303569724067 8.752880086815376 1.5482648517932933 -2.2412683928337636 1.4878444095766656 4.374577992702575" Properties=species:S:1:pos:R:3 unique_starting_index=20 config_type=initial n_minim_iter=18 stress="5.501174807042687e-06 5.933891445032911e-06 -6.478082202835359e-06 5.933891445032911e-06 -2.4436380618016842e-05 -1.6810288354321686e-05 -6.478082202835359e-06 -1.6810288354321686e-05 3.4393542051546007e-06" pbc="T T T"
Si       8.79812554       5.90641126       6.88853035
Si      10.85213808       2.58604552       3.02400996
Si       3.35707402       3.10816681       2.02412494
Si       1.30306147       6.42853255       5.88864533
Si      10.27399437       4.99237314       5.95896235
Si      10.93884619       3.56008590       4.73349450
Si       1.88120518       4.02220493       2.95369294
Si       1.21635336       5.45449217       4.17916079
Si       3.48126213       4.95894118       3.46881952
Si       2.64133083       4.63025290       5.17552998
Si       8.67393742       4.05563689       5.44383577
Si       9.51386872       4.38432517       3.73712531
Si       7.25847318       4.15837404       3.67367903
Si       4.89672637       4.85620403       5.23897626
14
Lattice="16.318638533908533 -1.2227818317039523 2.989568762381544 -1.9163697276365113 8.75910434780012 1.5473549106861553 -2.241501134614681 1.4879523828088548 4.374326126948897" Properties=species:S:1:pos:R:3 unique_starting_index=20 config_type=initial n_minim_iter=19 stress="5.448613726090998e-06 8.439343410442264e-08 -1.6869322997818437e-06 8.439343410442264e-08 6.00519983332505e-06 -2.3834600990238837e-07 -1.6869322997818437e-06 -2.3834600990238837e-07 1.730643874797967e-07" pbc="T T T"
Si       8.80213406       5.91284208       6.88772388
Si      10.85569041       2.59226298       3.02292177
Si       3.35863362       3.11143282       2.02352592
Si       1.30507726       6.43201192       5.88832803
Si      10.27755061       4.99702114       5.95872988
Si      10.94249813       3.56586732       4.73282892
Si       1.88321706       4.02725376       2.95251992
Si       1.21826955       5.45840758       4.17842088
Si       3.48343887       4.96308118       3.46862603
Si       2.64290541       4.63376116       5.17498030
Si       8.67732880       4.06119372       5.44262377
Si       9.51786226       4.39051374       3.73626950
Si       7.26264745       4.16210370       3.67295095
Si       4.89812022       4.86217120       5.23829885
