24
Lattice="8.837079772300122 -2.6303038627684248 -1.9965348225605428 0.1359104777119314 8.147482750783082 3.4118633112801646 0.384305762112608 5.459031819979219 13.595701352928106" Properties=species:S:1:pos:R:3 unique_starting_index=94 config_type=initial n_minim_iter=1 energy=-3930.076429957886 free_energy=-3930.076429957886 pbc="T T T"
Si      10.34224159       8.24985758       9.74067862
Si      -2.03683692       3.35611622       7.21794796
Si       1.19322467       7.14635776       2.89353377
Si       5.44731901      10.34309017      10.68320263
Si       4.56166915       0.90846041       2.31057668
Si       3.80159540       6.95868500      14.41479828
Si       5.68182899       1.48718124       3.72287863
Si       2.94694018      -0.08097260       1.91897678
Si       7.20968128       1.93572071       6.77119674
Si       8.84551969       9.71861936       8.90719682
Si       3.64618514       9.05636617      13.50801410
Si       5.92042119       2.52436092       5.37091060
Si       1.36184656       7.02105267       4.96508041
Si       2.50854564       7.57538200      13.11061282
Si       6.41256449       3.78857519       6.81950982
Si       4.84282031       5.30021389      14.22576228
Si       3.16035108       4.20828701      13.95021503
Si       2.77519874       6.77881251       1.74037540
Si       9.00400391       3.36343103       4.02037195
Si       3.42379226       5.79066960      12.82515837
Si       7.93014643       3.40888492       5.60848548
Si       1.61362178       0.52719198       0.59367240
Si       3.12074435      11.13868508      13.27320966
Si       7.46192901       2.22077203       4.11008116
24
Lattice="8.835870661787782 -2.6347699996295986 -1.999102659057153 0.1322585399786476 8.14978584722565 3.4153608222366034 0.37988966880857367 5.465573069633884 13.59746748614152" Properties=species:S:1:pos:R:3 unique_starting_index=94 config_type=initial n_minim_iter=2 stress="-0.0012131094749853672 -0.0007523517897627258 0.0002762101727266129 -0.0007523517897627258 -0.0010136537474180515 0.0006647034330121373 0.0002762101727266129 0.0006647034330121373 -0.0007321770862363219" pbc="T T T"
Si      10.33451925       8.25123828       9.74223798
Si      -2.03862018       3.36058504       7.21933468
Si       1.18988635       7.14798907       2.89617367
Si       5.44007923      10.34694281      10.68642520
Si       4.55973485       0.90796258       2.31020181
Si       3.79545710       6.96462690      14.41687579
Si       5.67933951       1.48693269       3.72262814
Si       2.94575686      -0.08144060       1.91820167
Si       7.20568627       1.93650846       6.77040321
Si       8.83796457       9.72032527       8.90966091
Si       3.63940627       9.06183371      13.51076135
Si       5.91687069       2.52478707       5.37087229
Si       1.35803853       7.02346412       4.96768243
Si       2.50268230       7.58103636      13.11310593
Si       6.40820978       3.78960394       6.81960496
Si       4.83689546       5.30526887      14.22672104
Si       3.15579190       4.21381748      13.95105827
Si       2.77153353       6.77916072       1.74294524
Si       8.99960527       3.36227278       4.02018540
Si       3.41865831       5.79536200      12.82640205
Si       7.92543929       3.40897200       5.60887296
Si       1.61277673       0.52726461       0.59377252
Si       3.11357026      11.14467706      13.27711219
Si       7.45799407       2.21982751       4.10956220
24
Lattice="8.838172554008583 -2.6373290069423954 -2.0025577635166925 0.13055152418992855 8.154471083174496 3.4178232545686744 0.37567147454566086 5.471059258541799 13.60165112326711" Properties=species:S:1:pos:R:3 unique_starting_index=94 config_type=initial n_minim_iter=3 stress="0.000674183864071016 -0.00016704133387568544 -0.0004553745825240717 -0.00016704133387568544 0.000949448476854159 0.000800811247043023 -0.0004553745825240717 0.000800811247043023 0.0012305983593500387" pbc="T T T"
Si      10.33269176       8.25635106       9.74338402
Si      -2.04116242       3.36407005       7.22211864
Si       1.18881955       7.15207239       2.89765268
Si       5.43698652      10.35375786      10.68951028
Si       4.55991349       0.90854978       2.30976173
Si       3.79141264       6.97089905      14.42095112
Si       5.67955598       1.48796024       3.72252937
Si       2.94565907      -0.08172235       1.91760518
Si       7.20473740       1.93848360       6.77018028
Si       8.83618691       9.72613758       8.91128160
Si       3.63529334       9.06852790      13.51463955
Si       5.91610614       2.52651712       5.37108302
Si       1.35640346       7.02787536       4.96964753
Si       2.49853633       7.58710878      13.11714548
Si       6.40708771       3.79222631       6.81987637
Si       4.83301207       5.31028317      14.22985181
Si       3.15240629       4.21845697      13.95449556
Si       2.77079931       6.78245999       1.74408013
Si       8.99968339       3.36385113       4.01947459
Si       3.41532588       5.80003071      12.82935198
Si       7.92460219       3.41128458       5.60925366
Si       1.61269818       0.52799364       0.59375805
Si       3.10949120      11.15268114      13.28167621
Si       7.45752063       2.22076601       4.10879823
24
Lattice="8.836462674617069 -2.63646127250767 -2.001111269865698 0.13056434561146962 8.153580694461075 3.4131564676288506 0.3749146165160026 5.466626217587661 13.592247761551441" Properties=species:S:1:pos:R:3 unique_starting_index=94 config_type=initial n_minim_iter=4 stress="-0.0005846522753372714 -7.806375553653239e-05 -0.0012830991737221144 -7.806375553653239e-05 0.0003484410893957173 -0.00035301308237743436 -0.0012830991737221144 -0.00035301308237743436 -0.0006055349513148353" pbc="T T T"
Si      10.33010082       8.25370112       9.73457972
Si      -2.04087169       3.36191374       7.21688791
Si       1.18911584       7.15162060       2.89288041
Si       5.43544639      10.35074017      10.67964213
Si       4.55921111       0.90814508       2.30813803
Si       3.78996240       6.96661967      14.41096264
Si       5.67892434       1.48700210       3.72007686
Si       2.94487639      -0.08303249       1.91596066
Si       7.20274922       1.93703199       6.76489334
Si       8.83435024       9.72389402       8.90246798
Si       3.63376026       9.06392138      13.50358160
Si       5.91460924       2.52482298       5.36700289
Si       1.35637522       7.02653814       4.96387795
Si       2.49703474       7.58265862      13.10734330
Si       6.40558764       3.79009139       6.81372719
Si       4.83076278       5.30570772      14.22008115
Si       3.15163625       4.21385762      13.94560514
Si       2.77020743       6.78196305       1.74081341
Si       8.99764551       3.36281565       4.01593366
Si       3.41429642       5.79505900      12.81963260
Si       7.92230319       3.41006900       5.60535201
Si       1.61212899       0.52877098       0.59335398
Si       3.10867138      11.14876448      13.27037823
Si       7.45521654       2.21927635       4.10515420
24
Lattice="8.8366617738437 -2.6357430070227004 -1.997413751704329 0.13234061372701028 8.152777829231967 3.4128130028804997 0.38067642488168574 5.465687812146549 13.59180597102525" Properties=species:S:1:pos:R:3 unique_starting_index=94 config_type=initial n_minim_iter=5 stress="-0.00010985746655858916 6.759741369522503e-05 0.00039943514308619297 6.759741369522503e-05 0.0002961800766538217 6.638832533208448e-05 0.00039943514308619297 6.638832533208448e-05 -1.6675839359988302e-05" pbc="T T T"
Si      10.33561107       8.25318938       9.73816262
Si      -2.03794205       3.36136949       7.21564273
Si       1.19105731       7.15114906       2.89265447
Si       5.44084899      10.34980761      10.68108908
Si       4.56085872       0.90827604       2.30991758
Si       3.79656599       6.96580677      14.41214290
Si       5.68158876       1.48706166       3.72247903
Si       2.94600510      -0.08334283       1.91691406
Si       7.20639212       1.93726469       6.76730391
Si       8.83960630       9.72332579       8.90539301
Si       3.63993979       9.06260873      13.50416090
Si       5.91756533       2.52462570       5.36918443
Si       1.35890818       7.02575895       4.96382674
Si       2.50272206       7.58145632      13.10777313
Si       6.40933450       3.78978966       6.81560923
Si       4.83704822       5.30496997      14.22153973
Si       3.15815610       4.21304259      13.94653140
Si       2.77151407       6.78131851       1.74170080
Si       9.00059861       3.36289026       4.01944725
Si       3.42025927       5.79380176      12.82021389
Si       7.92552734       3.41010982       5.60863296
Si       1.61247500       0.52927138       0.59403178
Si       3.11509345      11.14756773      13.27085372
Si       7.45766977       2.21916465       4.10787755
24
Lattice="8.841849198671678 -2.633937160450292 -1.9981460939496105 0.13206853519672096 8.147397437125889 3.4122260904604724 0.379681567616169 5.460470065245629 13.593327408106639" Properties=species:S:1:pos:R:3 unique_starting_index=94 config_type=initial n_minim_iter=6 stress="0.0007646448759796137 -0.00018247953980351042 4.0726012730279195e-06 -0.00018247953980351042 -0.0005046338114886144 -0.00012360933545725505 4.0726012730279195e-06 -0.00012360933545725505 8.203406215809561e-05" pbc="T T T"
Si      10.34028172       8.24688817       9.73783387
Si      -2.03941768       3.35831084       7.21654760
Si       1.19228710       7.14705996       2.89138949
Si       5.44270311      10.34219924      10.68091170
Si       4.56365446       0.90765347       2.31032459
Si       3.79733251       6.95965395      14.41392900
Si       5.68459489       1.48531593       3.72226996
Si       2.94757326      -0.08420464       1.91695665
Si       7.20972313       1.93560717       6.76725023
Si       8.84394130       9.71673481       8.90467367
Si       3.64041096       9.05463688      13.50446709
Si       5.92003956       2.52215673       5.36937616
Si       1.35867272       7.02027266       4.96349774
Si       2.50246497       7.57441890      13.10894901
Si       6.41210345       3.78670534       6.81511729
Si       4.83804381       5.29986580      14.22307206
Si       3.15931654       4.20796935      13.94825004
Si       2.77282044       6.77646615       1.74076265
Si       9.00560109       3.36068382       4.01897178
Si       3.42117346       5.78765614      12.82107094
Si       7.92943975       3.40738372       5.60877709
Si       1.61313681       0.52978767       0.59398295
Si       3.11606873      11.13914784      13.27133580
Si       7.46169186       2.21744640       4.10760904
24
Lattice="8.833149345271133 -2.630308313424443 -1.9990395008026087 0.1364109954571235 8.150887899134174 3.414158592077576 0.3823439145308702 5.464251527212049 13.597965886290147" Properties=species:S:1:pos:R:3 unique_starting_index=94 config_type=initial n_minim_iter=7 stress="-0.0003803683985718171 0.0005542484662319193 7.910964930546155e-05 0.0005542484662319193 0.00034223646016018366 0.00019431250906686676 7.910964930546155e-05 0.00019431250906686676 -6.942390825323724e-05" pbc="T T T"
Si      10.33560631       8.25699725       9.74182919
Si      -2.03509496       3.35898753       7.21907717
Si       1.19757944       7.15223418       2.89185719
Si       5.44336028      10.35057688      10.68511150
Si       4.56058778       0.91101879       2.31171375
Si       3.79749836       6.96609360      14.42020279
Si       5.68124700       1.48881044       3.72344191
Si       2.94536152      -0.08337942       1.91769882
Si       7.20456685       1.94197724       6.76889475
Si       8.84225264       9.72758632       8.90814005
Si       3.64162651       9.06033247      13.50852816
Si       5.91553228       2.52656670       5.37140954
Si       1.36057269       7.02324538       4.96513303
Si       2.50350368       7.57849788      13.11421376
Si       6.40815517       3.79330528       6.81648338
Si       4.83606933       5.30644180      14.22850339
Si       3.15973975       4.21127131      13.95313981
Si       2.77411012       6.77922179       1.74173974
Si       9.00000664       3.36805043       4.02130917
Si       3.42157679       5.79170244      12.82549334
Si       7.92510419       3.41410098       5.61090441
Si       1.61205562       0.53252472       0.59451658
Si       3.12062381      11.14695187      13.27665219
Si       7.45767206       2.22385078       4.10920492
24
Lattice="8.834000457137394 -2.6337461265652644 -2.0001462618779327 0.13171318750760275 8.147475399435612 3.4137233245811247 0.37811257306876056 5.459021519321818 13.60289995755294" Properties=species:S:1:pos:R:3 unique_starting_index=94 config_type=initial n_minim_iter=8 stress="-0.0005407857370921352 -0.0003682867676306378 -7.653302598833685e-06 -0.0003682867676306378 -0.0002428664737988786 -0.00025763413990536596 -7.653302598833685e-06 -0.00025763413990536596 0.0006958171615673236" pbc="T T T"
Si      10.32863969       8.24684885       9.74361254
Si      -2.03632055       3.35706385       7.22177104
Si       1.19601267       7.15079491       2.89022640
Si       5.43568286      10.34232661      10.68686568
Si       4.55899558       0.90766413       2.31225910
Si       3.79128509       6.95845500      14.42614559
Si       5.68063807       1.48392355       3.72468865
Si       2.94517657      -0.08634712       1.91866598
Si       7.20205784       1.93674261       6.77032672
Si       8.83596132       9.71914732       8.90882949
Si       3.63416252       9.05063995      13.51100244
Si       5.91192192       2.52084922       5.37270905
Si       1.35590578       7.01883755       4.96410777
Si       2.49697372       7.57014094      13.11869103
Si       6.40377182       3.78824851       6.81694093
Si       4.83088836       5.29900835      14.23401804
Si       3.15660163       4.20296389      13.95876779
Si       2.77015079       6.77335023       1.73999845
Si       8.99672619       3.36184209       4.02268234
Si       3.41690122       5.78335490      12.83009904
Si       7.92257193       3.40814408       5.61172497
Si       1.61159037       0.53214129       0.59521472
Si       3.11439229      11.13910634      13.27993192
Si       7.45636070       2.21947579       4.11013586
24
Lattice="8.843651689681385 -2.6335794294108084 -1.9995160418411078 0.13230783146258757 8.149144466054967 3.4117422287831802 0.377210406523898 5.464137939413808 13.585561131492394" Properties=species:S:1:pos:R:3 unique_starting_index=94 config_type=initial n_minim_iter=9 stress="0.0004332384512943751 0.00015934655033834238 -0.0002326650619231549 0.00015934655033834238 -0.00046110852887256846 0.0005160380314711782 -0.0002326650619231549 0.0005160380314711782 -0.000909419021938326" pbc="T T T"
Si      10.33825168       8.25245677       9.73180184
Si      -2.03724718       3.35954535       7.21277379
Si       1.20194270       7.15614609       2.88686140
Si       5.44010699      10.34817559      10.67436237
Si       4.56302017       0.90905268       2.30916908
Si       3.79249929       6.96444714      14.40953272
Si       5.68793259       1.48494775       3.71953458
Si       2.94780529      -0.08689697       1.91602556
Si       7.20881912       1.94152750       6.75953936
Si       8.84656009       9.72614135       8.89816705
Si       3.63576961       9.05397999      13.49249321
Si       5.91594684       2.52262945       5.36490143
Si       1.35693170       7.02084697       4.95665768
Si       2.49683256       7.57279640      13.10295546
Si       6.40808634       3.79375705       6.80566518
Si       4.83439379       5.30530311      14.21609035
Si       3.15941048       4.20524693      13.94106812
Si       2.77416230       6.77123064       1.73813348
Si       9.00719959       3.36658879       4.01814621
Si       3.41899296       5.78601189      12.81499869
Si       7.93148085       3.41291924       5.60378323
Si       1.61368066       0.53244998       0.59626517
Si       3.11937974      11.14560691      13.26488276
Si       7.46459800       2.22350699       4.10470993
24
Lattice="8.841746879357235 -2.6366500924152563 -1.9961187873030228 0.13066046052732788 8.152499002240868 3.406886160999352 0.3785863880230801 5.458587003003861 13.584593017282634" Properties=species:S:1:pos:R:3 unique_starting_index=94 config_type=initial n_minim_iter=10 stress="0.00019628195605420314 -0.0007589401635050548 0.0001852533078861149 -0.0007589401635050548 0.0011175378559055023 -0.0004005237915392364 0.0001852533078861149 -0.0004005237915392364 -0.0008713027752307122" pbc="T T T"
Si      10.33440471       8.24903998       9.73095929
Si      -2.03432219       3.35774852       7.21109761
Si       1.20346390       7.16210149       2.88136149
Si       5.43731561      10.34744937      10.67037063
Si       4.56164809       0.90683154       2.31101351
Si       3.79131105       6.95838103      14.40977815
Si       5.68782107       1.48068646       3.72019122
Si       2.94717010      -0.09041928       1.91770347
Si       7.20760091       1.93754842       6.76058748
Si       8.84459404       9.72610501       8.89535716
Si       3.63396207       9.04813365      13.48792471
Si       5.91353274       2.51820864       5.36521478
Si       1.35506132       7.02151401       4.95114397
Si       2.49541615       7.56659933      13.10092014
Si       6.40511216       3.79156043       6.80392690
Si       4.83482200       5.29824668      14.21714672
Si       3.16122885       4.19485988      13.94272733
Si       2.77256800       6.77105163       1.73310437
Si       9.00618744       3.36565384       4.01893558
Si       3.41862753       5.77830066      12.81596146
Si       7.92973956       3.41105505       5.60502222
Si       1.61375390       0.53128718       0.59838872
Si       3.12022762      11.14415029      13.26077395
Si       7.46268487       2.22137988       4.10616790
24
Lattice="8.834639913153616 -2.6286487762261275 -1.9988477934954152 0.1350516946852655 8.144910663453262 3.4088153259583747 0.37985566650279906 5.451392551468869 13.597763271120243" Properties=species:S:1:pos:R:3 unique_starting_index=94 config_type=initial n_minim_iter=11 stress="-0.00028980023988195306 6.998151347366604e-05 -0.0002389911690103951 6.998151347366604e-05 -0.00032067229579687564 -0.00012982208301530693 -0.0002389911690103951 -0.00012982208301530693 7.05972286432461e-05" pbc="T T T"
Si      10.33043514       8.24665076       9.73878043
Si      -2.03022861       3.35262754       7.21777731
Si       1.20937774       7.15905886       2.88129637
Si       5.43801969      10.34065853      10.67854389
Si       4.55815095       0.90825498       2.31342370
Si       3.78975194       6.95158305      14.42407864
Si       5.68548756       1.48104237       3.72273315
Si       2.94462620      -0.08997302       1.91990514
Si       7.20274965       1.94045525       6.76585456
Si       8.84453106       9.72305199       8.90177358
Si       3.63408564       9.03814798      13.49803967
Si       5.90945058       2.51771726       5.36927596
Si       1.35746561       7.01509102       4.95280924
Si       2.49534181       7.55724394      13.11278329
Si       6.40065176       3.79210132       6.80758998
Si       4.83306438       5.29418286      14.23112545
Si       3.16063467       4.18775242      13.95703861
Si       2.77553196       6.76392832       1.73183783
Si       9.00269771       3.36896754       4.02158340
Si       3.41737831       5.77077287      12.82967510
Si       7.92563605       3.41362270       5.61019789
Si       1.61353188       0.53091749       0.60089403
Si       3.12496415      11.13438831      13.27225257
Si       7.45819314       2.22436057       4.10962544
24
Lattice="8.833654958156735 -2.627807603510636 -1.9961874322446724 0.13695949543655506 8.14506323486227 3.409146757608401 0.38482491045480843 5.451218214332667 13.599761344489401" Properties=species:S:1:pos:R:3 unique_starting_index=94 config_type=initial n_minim_iter=12 stress="-5.701166226965884e-05 -0.00012334369182686773 8.931462138875431e-05 -0.00012334369182686773 -0.00010927470619568803 0.00015320032066674488 8.931462138875431e-05 0.00015320032066674488 5.612786703247925e-05" pbc="T T T"
Si      10.33343593       8.24807641       9.74451035
Si      -2.02479134       3.35350277       7.21675847
Si       1.21298851       7.16255924       2.87885971
Si       5.44196890      10.34294677      10.68114148
Si       4.55766871       0.90853825       2.31678981
Si       3.79302918       6.95135577      14.42813663
Si       5.68745101       1.47958796       3.72347238
Si       2.94562989      -0.09081852       1.92202832
Si       7.20467322       1.94383237       6.76841832
Si       8.84972444       9.72612470       8.90631439
Si       3.63823470       9.03698978      13.49835926
Si       5.91071740       2.51734121       5.37153519
Si       1.35894373       7.01425146       4.95226140
Si       2.49842666       7.55471961      13.11457041
Si       6.40038890       3.79389911       6.80767147
Si       4.83899318       5.29470403      14.23560696
Si       3.16786397       4.18470230      13.96080059
Si       2.77917996       6.76142298       1.73101433
Si       9.00306458       3.37050338       4.02635300
Si       3.42041276       5.76683954      12.83583284
Si       7.92732586       3.41736337       5.61435431
Si       1.61451990       0.53078723       0.60527912
Si       3.13283032      11.13520650      13.27507761
Si       7.45952583       2.22756841       4.11388845
24
Lattice="8.833255677241947 -2.6247741075327866 -1.997200706667457 0.13827852130504692 8.145071774574607 3.404353422187779 0.38218352511083065 5.4457776454111 13.593920168025058" Properties=species:S:1:pos:R:3 unique_starting_index=94 config_type=initial n_minim_iter=13 stress="4.0583584678669006e-05 7.649060558348898e-06 -0.00012225498708796475 7.649060558348898e-06 7.074494198225918e-05 -8.50988320762361e-05 -0.00012225498708796475 -8.50988320762361e-05 3.833275285096504e-05" pbc="T T T"
Si      10.33207818       8.24826661       9.73605564
Si      -2.02392806       3.35097268       7.21301066
Si       1.21559193       7.16500740       2.87218932
Si       5.44112623      10.34274846      10.67168851
Si       4.55508341       0.90837709       2.31444193
Si       3.78904843       6.94646396      14.42062335
Si       5.68809055       1.47885039       3.72012308
Si       2.94563918      -0.09185219       1.92122044
Si       7.20279405       1.94504576       6.76313238
Si       8.85033464       9.72803100       8.89723718
Si       3.63568041       9.03224489      13.48768789
Si       5.90924705       2.51630761       5.36665823
Si       1.35804011       7.01173205       4.94737202
Si       2.49555322       7.54889820      13.10654413
Si       6.39679540       3.79421371       6.80024978
Si       4.83675240       5.29043410      14.22905580
Si       3.16599406       4.17748507      13.95526914
Si       2.78276883       6.76110515       1.72539717
Si       9.00211685       3.37267351       4.02116347
Si       3.41680257       5.75957343      12.83123517
Si       7.92600272       3.41983266       5.60941095
Si       1.61449944       0.53116334       0.60725349
Si       3.13362507      11.13212959      13.26572612
Si       7.45841221       2.23012844       4.11068133
24
Lattice="8.832234705325552 -2.6182716914376503 -1.9960640132812135 0.14471234028987787 8.145519443542407 3.4038329511961725 0.3875271590235861 5.446548548844176 13.591233379973628" Properties=species:S:1:pos:R:3 unique_starting_index=94 config_type=initial n_minim_iter=14 stress="6.252059314803261e-05 9.499186986016995e-05 0.00021281852402944002 9.499186986016995e-05 0.0001283752795380424 7.7010231225409e-05 0.00021281852402944002 7.7010231225409e-05 0.0001674831077341029" pbc="T T T"
Si      10.34064181       8.25682274       9.73769553
Si      -2.01639437       3.35077754       7.20863212
Si       1.22561295       7.16867209       2.86922614
Si       5.44956416      10.35024933      10.67009706
Si       4.55447827       0.91221538       2.31648885
Si       3.79431435       6.94889229      14.41838679
Si       5.69261716       1.48137616       3.71826014
Si       2.94820544      -0.09307766       1.92123710
Si       7.20721064       1.95489250       6.76150833
Si       8.86000476       9.73939212       8.89762616
Si       3.64150032       9.03275474      13.48043752
Si       5.91117567       2.52035678       5.36362616
Si       1.36386183       7.00972278       4.94630155
Si       2.50255120       7.54928228      13.10281701
Si       6.39491391       3.80249178       6.79667785
Si       4.84475781       5.29436945      14.22808634
Si       3.16878344       4.17618091      13.95530413
Si       2.79409936       6.76236613       1.72493227
Si       9.00422535       3.38022014       4.02088408
Si       3.41999130       5.75661686      12.83086739
Si       7.92970641       3.43021048       5.60991864
Si       1.61163419       0.53215537       0.61298709
Si       3.14666049      11.13482413      13.26338452
Si       7.46044661       2.23964468       4.11236323
24
Lattice="8.83731584074062 -2.6178712065346574 -1.998345326250145 0.1442792187539014 8.145238301837436 3.404204576664153 0.38422203301373425 5.448679431433608 13.587258768335683" Properties=species:S:1:pos:R:3 unique_starting_index=94 config_type=initial n_minim_iter=15 stress="0.00011963304474725551 -5.551485645234302e-05 0.00019372327185281633 -5.551485645234302e-05 7.027477827158662e-05 6.150189275552858e-05 0.00019372327185281633 6.150189275552858e-05 8.911337442173525e-05" pbc="T T T"
Si      10.34483981       8.25874688       9.73520351
Si      -2.01556997       3.35063506       7.20650734
Si       1.22854737       7.16927437       2.86814383
Si       5.45008654      10.35367308      10.66668920
Si       4.55458144       0.91331456       2.31571942
Si       3.79167450       6.94817003      14.41359586
Si       5.69706998       1.48171906       3.71443193
Si       2.95140415      -0.09501803       1.91847996
Si       7.20867292       1.95966727       6.75684103
Si       8.86368154       9.74334777       8.89435719
Si       3.63914166       9.03365842      13.47276550
Si       5.91162289       2.52276587       5.36031529
Si       1.36474418       7.00851346       4.94631521
Si       2.50007878       7.54674597      13.09795057
Si       6.39162436       3.80557191       6.79087355
Si       4.84372491       5.29539605      14.22267264
Si       3.16575694       4.17564802      13.95341369
Si       2.80019874       6.76171167       1.72500256
Si       9.00682374       3.38129372       4.01657617
Si       3.41546446       5.75828030      12.82957333
Si       7.93115937       3.43524944       5.60738409
Si       1.61022956       0.53271663       0.61363939
Si       3.14694486      11.13536570      13.25966906
Si       7.46236925       2.24351123       4.10855429
24
Lattice="8.83570809409547 -2.6150078013379914 -2.00000871164835 0.14690116454160718 8.146181339143062 3.405834439644272 0.3844479124882691 5.451932783491113 13.587779744862774" Properties=species:S:1:pos:R:3 unique_starting_index=94 config_type=initial n_minim_iter=16 stress="-7.675277820850205e-06 -9.093127436020338e-06 -2.2087338339644682e-05 -9.093127436020338e-06 -1.229999453172785e-05 1.3592616178193623e-05 -2.2087338339644682e-05 1.3592616178193623e-05 -1.765180156276893e-05" pbc="T T T"
Si      10.34660669       8.26538502       9.73640041
Si      -2.01334554       3.35167142       7.20805885
Si       1.23188517       7.16980201       2.86880831
Si       5.45218496      10.35873039      10.66839421
Si       4.55431413       0.91615977       2.31621760
Si       3.79298907       6.95172127      14.41526708
Si       5.69790184       1.48519327       3.71356699
Si       2.95059178      -0.09383494       1.91770173
Si       7.20649158       1.96448377       6.75528668
Si       8.86502432       9.75083455       8.89445249
Si       3.63922782       9.03632553      13.47180801
Si       5.91097276       2.52618100       5.35901952
Si       1.36692134       7.01073225       4.94955385
Si       2.50072561       7.55128148      13.09742061
Si       6.39019528       3.81114403       6.78939324
Si       4.84277733       5.29778080      14.22097454
Si       3.16683329       4.17847562      13.95286737
Si       2.80401623       6.76356096       1.72745410
Si       9.00605094       3.38624613       4.01659523
Si       3.41415821       5.76288444      12.83172035
Si       7.93010685       3.44102569       5.60539098
Si       1.60944548       0.53234036       0.61351942
Si       3.14939162      11.13858545      13.26091245
Si       7.46064775       2.24796650       4.10777165
24
Lattice="8.83497476118741 -2.6126419526535987 -1.9995937613823982 0.14889407170290395 8.145369901453126 3.4054107104678066 0.38597646036330113 5.451525939889551 13.585928068030752" Properties=species:S:1:pos:R:3 unique_starting_index=94 config_type=initial n_minim_iter=17 stress="-3.9628905384372916e-05 2.3742909252643055e-06 -7.223490259047508e-05 2.3742909252643055e-06 -8.200201923373007e-05 -6.416924469648806e-05 -7.223490259047508e-05 -6.416924469648806e-05 -9.834654893768105e-05" pbc="T T T"
Si      10.34935902       8.26786678       9.73616990
Si      -2.01108120       3.35175228       7.20803428
Si       1.23450487       7.16877236       2.86851108
Si       5.45464227      10.35942828      10.66801894
Si       4.55377357       0.91627532       2.31608940
Si       3.79448468       6.95322057      14.41342855
Si       5.69818905       1.48638825       3.71233436
Si       2.95099342      -0.09320317       1.91812986
Si       7.20654324       1.96672582       6.75381982
Si       8.86711869       9.75418665       8.89317514
Si       3.64157986       9.03549509      13.46883522
Si       5.91101808       2.52721832       5.35744510
Si       1.36990190       7.01095408       4.95019523
Si       2.50224808       7.55013112      13.09595772
Si       6.39082320       3.81328304       6.78656697
Si       4.84436060       5.29549517      14.21849615
Si       3.16896471       4.17718555      13.95103573
Si       2.80728735       6.76358137       1.72870871
Si       9.00688074       3.38879494       4.01616089
Si       3.41533248       5.76253185      12.82980359
Si       7.92829980       3.44337626       5.60412945
Si       1.60843363       0.53163840       0.61392966
Si       3.15241938      11.13702296      13.25914089
Si       7.46141358       2.25103062       4.10768345
24
Lattice="8.83513487613669 -2.6113381144998025 -2.000542479673522 0.14995126255293964 8.145396021672637 3.4063452860655605 0.38589452677474495 5.452820901356256 13.586723980860793" Properties=species:S:1:pos:R:3 unique_starting_index=94 config_type=initial n_minim_iter=18 stress="-3.8860147972356845e-05 2.0686107960096336e-05 -5.7178607704343086e-05 2.0686107960096336e-05 -2.355580790230052e-05 -3.062828925596844e-05 -5.7178607704343086e-05 -3.062828925596844e-05 -2.5093667083195935e-05" pbc="T T T"
Si      10.35091520       8.27120783       9.73727162
Si      -2.01015697       3.35307941       7.20829359
Si       1.23619792       7.16857481       2.86949127
Si       5.45591954      10.36188055      10.66943740
Si       4.55360064       0.91618808       2.31587236
Si       3.79496990       6.95406017      14.41426554
Si       5.69852351       1.48727555       3.71119044
Si       2.95129376      -0.09283028       1.91743721
Si       7.20656059       1.96956124       6.75410933
Si       8.86941733       9.75782764       8.89406572
Si       3.64209278       9.03595126      13.46848490
Si       5.91016266       2.52852656       5.35638601
Si       1.37203522       7.01063385       4.95198531
Si       2.50189540       7.55107399      13.09715707
Si       6.38947559       3.81586914       6.78531363
Si       4.84370415       5.29696563      14.21948483
Si       3.16880474       4.17784386      13.95257404
Si       2.81042593       6.76307623       1.72969501
Si       9.00728115       3.39129165       4.01635928
Si       3.41548907       5.76311670      12.83075853
Si       7.92771641       3.44694071       5.60279411
Si       1.60841631       0.53213949       0.61457585
Si       3.15368089      11.13743865      13.26043906
Si       7.46102924       2.25346604       4.10688338
24
Lattice="8.83678537253965 -2.6104228796750073 -2.001972744307487 0.15091824274742197 8.146461828232871 3.4078181247553676 0.3853256394612384 5.45590762424447 13.587058829917904" Properties=species:S:1:pos:R:3 unique_starting_index=94 config_type=initial n_minim_iter=19 stress="1.4607365264246849e-05 1.3803926924758103e-05 1.8184397659812525e-06 1.3803926924758103e-05 4.31074205495134e-05 4.254704756420855e-05 1.8184397659812525e-06 4.254704756420855e-05 7.172132620927812e-05" pbc="T T T"
Si      10.35404667       8.27745178       9.73857154
Si      -2.00913232       3.35608441       7.20796178
Si       1.23909312       7.16884942       2.87167224
Si       5.45808922      10.36728974      10.67098297
Si       4.55511391       0.91570783       2.31570768
Si       3.79533457       6.95659464      14.41344378
Si       5.70061521       1.48897198       3.70982768
Si       2.95071222      -0.09355110       1.91723858
Si       7.20757755       1.97501549       6.75315190
Si       8.87260715       9.76550700       8.89512947
Si       3.64284980       9.03743531      13.46695376
Si       5.90924489       2.53099624       5.35497854
Si       1.37492691       7.01060484       4.95514225
Si       2.50078166       7.55370623      13.09849253
Si       6.38679652       3.81966521       6.78231279
Si       4.84393963       5.29943102      14.21970382
Si       3.16849303       4.17964524      13.95351890
Si       2.81518610       6.76201284       1.73178204
Si       9.00817431       3.39448707       4.01615278
Si       3.41516885       5.76494387      12.83253034
Si       7.92669534       3.45228497       5.60060197
Si       1.60906909       0.53239397       0.61447731
Si       3.15499024      11.13906028      13.26198274
Si       7.46167590       2.25735357       4.10467444
24
Lattice="8.838094181367136 -2.610221981669012 -2.003479948510105 0.15144789271771716 8.14889261195586 3.408626795886295 0.38387399651779824 5.459823520609037 13.584936916018597" Properties=species:S:1:pos:R:3 unique_starting_index=94 config_type=initial n_minim_iter=20 stress="4.377385424912318e-05 -7.052156703434382e-07 -1.8235880598981126e-06 -7.052156703434382e-07 6.174688731085064e-05 7.719686598396411e-05 -1.8235880598981126e-06 7.719686598396411e-05 3.7247699402167974e-05" pbc="T T T"
Si      10.35569384       8.28512689       9.73731971
Si      -2.00858779       3.35977942       7.20706069
Si       1.24103040       7.16964702       2.87332426
Si       5.45890733      10.37380267      10.67050845
Si       4.55597221       0.91443066       2.31430034
Si       3.79559540       6.95928885      14.41083878
Si       5.70142862       1.49087563       3.70711472
Si       2.95159038      -0.09301916       1.91680884
Si       7.20773361       1.98034204       6.74981968
Si       8.87345967       9.77501695       8.89355649
Si       3.64334164       9.04081966      13.46342463
Si       5.90820164       2.53361977       5.35240518
Si       1.37711573       7.01284003       4.95697076
Si       2.49785920       7.55792327      13.09686184
Si       6.38355586       3.82432187       6.77794671
Si       4.84258389       5.30258717      14.21792617
Si       3.16843337       4.18194843      13.95162354
Si       2.81849444       6.76184671       1.73426618
Si       9.00876599       3.39792239       4.01419181
Si       3.41432594       5.76801445      12.83060532
Si       7.92396140       3.45749495       5.59723246
Si       1.60877338       0.53121218       0.61416297
Si       3.15467974      11.14212733      13.26116546
Si       7.46201023       2.26099526       4.10151173
24
Lattice="8.837471801944018 -2.6083351865189743 -2.0035305828570267 0.15331648138709147 8.148821828559107 3.4094200519682705 0.3854876912773553 5.46052012878805 13.586467356056687" Properties=species:S:1:pos:R:3 unique_starting_index=94 config_type=initial n_minim_iter=21 stress="1.671749896117788e-05 -1.70157335016283e-05 3.761509540324598e-05 -1.70157335016283e-05 -1.9477116702680356e-05 3.2384387015165467e-05 3.761509540324598e-05 3.2384387015165467e-05 7.012085759080738e-06" pbc="T T T"
Si      10.35797039       8.29030765       9.73940416
Si      -2.00694691       3.36122080       7.20808793
Si       1.24261363       7.16741649       2.87464171
Si       5.46170217      10.37581745      10.67312412
Si       4.55746557       0.91300509       2.31454716
Si       3.79717292       6.95996251      14.41129877
Si       5.70167962       1.49290508       3.70686260
Si       2.95234571      -0.09204485       1.91765895
Si       7.20779772       1.98388310       6.75028818
Si       8.87562134       9.78055274       8.89461451
Si       3.64676705       9.04019517      13.46461969
Si       5.90852468       2.53488917       5.35174089
Si       1.37996703       7.01338163       4.95913993
Si       2.49975801       7.55854962      13.10050525
Si       6.38210682       3.82788164       6.77757570
Si       4.84468686       5.30223056      14.22082307
Si       3.17203024       4.18279697      13.95448490
Si       2.82047486       6.76025670       1.73747630
Si       9.00948002       3.40068197       4.01493282
Si       3.41618045       5.76932630      12.83139562
Si       7.92203171       3.46155438       5.59593251
Si       1.60914695       0.53014855       0.61379441
Si       3.15686891      11.14099610      13.26391875
Si       7.46193906       2.26345259       4.10100386
