20
Lattice="5.485901217189025 -3.2339773549606305e-16 -1.6574608470013566e-14 2.3287264471130737e-16 3.9502945912669127 -1.7272055359022445e-11 6.149790353058571e-14 8.899785776355855e-11 20.354714528753412" Properties=species:S:1:pos:R:3 unique_starting_index=4 config_type=initial n_minim_iter=1 energy=-3253.272320309584 free_energy=-3253.272320309584 pbc="T T T"
Si       3.62909213       2.05584179      12.21395983
Si       3.62909213       1.89445280       8.14075470
Si       1.84141276       0.97171195      10.86177682
Si       1.84141276       2.97858264       9.49293771
Si       1.85680909       0.08069450      18.31811197
Si       1.85680909       3.86960010       2.03660256
Si       3.64448845       2.94685925      19.67029497
Si       3.64448845       1.00343534       0.68441956
Si       2.49652718       3.07088066       4.18580563
Si       2.49652718       0.87941393      16.16890890
Si       2.48201621       2.92878557      16.19506467
Si       2.48201621       1.02150902       4.15964986
Si       2.98937404       1.09573336       5.99155163
Si       2.98937404       2.85456123      14.36316290
Si       3.00388500       0.95363828      14.33700712
Si       3.00388500       2.99665631       6.01770740
Si       6.01338302       2.18269048      19.16715685
Si       6.01338302       1.76760412       1.18755768
Si      -0.52748181       3.74275141       8.98979959
Si      -0.52748181       0.20754318      11.36491494
20
Lattice="5.484724559742151 -3.233283707119112e-16 -1.6571053423046232e-14 2.326813398239036e-16 3.9470494240943244 -1.7257859736684128e-11 6.150071559403773e-14 8.900196261910132e-11 20.35564527184408" Properties=species:S:1:pos:R:3 unique_starting_index=4 config_type=initial n_minim_iter=2 stress="0.0016974066221349267 -2.2406957284759727e-17 -2.0825400861933818e-15 -2.2406957284759727e-17 -0.0005115238231401863 1.4058358045411038e-15 -2.0825400861933818e-15 1.4058358045411038e-15 -0.00017234288566226176" pbc="T T T"
Si       3.62835159       2.05411593      12.21450087
Si       3.62835159       1.89293349       8.14114440
Si       1.84090154       0.97101366      10.86236594
Si       1.84090154       2.97603577       9.49327934
Si       1.85637297       0.08059122      18.31896703
Si       1.85637297       3.86645820       2.03667824
Si       3.64382302       2.94453837      19.67110197
Si       3.64382302       1.00251105       0.68454330
Si       2.49601582       3.06845857       4.18600648
Si       2.49601582       0.87859085      16.16963879
Si       2.48151470       2.92654165      16.19571568
Si       2.48151470       1.02050777       4.15992959
Si       2.98870874       1.09493386       5.99181616
Si       2.98870874       2.85211556      14.36382912
Si       3.00320986       0.95301694      14.33775223
Si       3.00320986       2.99403248       6.01789304
Si       6.01209384       2.18085514      19.16805902
Si       6.01209384       1.76619428       1.18758625
Si      -0.52736928       3.73971899       8.99023638
Si      -0.52736928       0.20733043      11.36540889
20
Lattice="5.445836266184646 -3.210358784529556e-16 -1.645355983097005e-14 2.329737572935699e-16 3.952009796963575 -1.7279555367299837e-11 6.154664052638027e-14 8.906838687773517e-11 20.370845609317698" Properties=species:S:1:pos:R:3 unique_starting_index=4 config_type=initial n_minim_iter=3 stress="-0.005224790331015801 5.12636524382497e-17 -4.03981005173151e-15 5.12636524382497e-17 0.00018310440701192716 -6.772217132002122e-14 -4.03981005173151e-15 -6.772217132002122e-14 -0.015224325673318452" pbc="T T T"
Si       3.60403771       2.05529962      12.22304255
Si       3.60403771       1.89671018       8.14780306
Si       1.82338660       0.97608282      10.87407705
Si       1.82338660       2.97592698       9.49676855
Si       1.84179855       0.07929472      18.33322586
Si       1.84179855       3.87271508       2.03761975
Si       3.62244967       2.95208772      19.68219136
Si       3.62244967       0.99992208       0.68865425
Si       2.47932691       3.07241407       4.18971506
Si       2.47932691       0.87959573      16.18113055
Si       2.46511765       2.93270429      16.20422497
Si       2.46511765       1.01930551       4.16662064
Si       2.96650936       1.09640917       5.99570774
Si       2.96650936       2.85560063      14.37513786
Si       2.98071862       0.95669939      14.35204345
Si       2.98071862       2.99531041       6.01880216
Si       5.96945167       2.18193123      19.18337450
Si       5.96945167       1.77007857       1.18747111
Si      -0.52361541       3.74608347       8.99795169
Si      -0.52361541       0.20592633      11.37289392
20
Lattice="5.418911831707013 -3.1944866410204874e-16 -1.6372212766545122e-14 2.332692022179121e-16 3.9570215255334555 -1.7301264734698454e-11 6.183010313005724e-14 8.947966779835795e-11 20.464666699894376" Properties=species:S:1:pos:R:3 unique_starting_index=4 config_type=initial n_minim_iter=4 stress="-0.0070740623999605455 5.20948252483579e-17 -5.327982637268995e-15 5.20948252483579e-17 0.0003459425380334705 1.4209925011636012e-14 -5.327982637268995e-15 1.4209925011636012e-14 0.003637477445165014" pbc="T T T"
Si       3.58754619       2.05659603      12.27880451
Si       3.58754619       1.90042550       8.18586219
Si       1.81016712       0.98093505      10.92754550
Si       1.81016712       2.97608647       9.53712120
Si       1.83136564       0.07808526      18.41819554
Si       1.83136564       3.87893626       2.04647116
Si       3.60874471       2.95944582      19.76945455
Si       3.60874471       0.99757571       0.69521215
Si       2.46788489       3.07639715       4.20903097
Si       2.46788489       0.88062438      16.25563573
Si       2.45392224       2.93877394      16.27597390
Si       2.45392224       1.01824758       4.18869280
Si       2.95102694       1.09788638       6.02330238
Si       2.95102694       2.85913514      14.44136432
Si       2.96498959       0.96026318      14.42102615
Si       2.96498959       2.99675834       6.04364055
Si       5.93992610       2.18311470      19.27267422
Si       5.93992610       1.77390682       1.19199248
Si      -0.52101427       3.75241759       9.04034087
Si      -0.52101427       0.20460394      11.42432583
20
Lattice="5.457399307961826 -3.2171752789908e-16 -1.648849536527727e-14 2.338478612203633e-16 3.9668375068411894 -1.7343809696688393e-11 6.207433881068182e-14 8.983504475522347e-11 20.545504375188102" Properties=species:S:1:pos:R:3 unique_starting_index=4 config_type=initial n_minim_iter=5 stress="0.00032165367638890515 -3.603755161233741e-17 -5.6436989918957495e-15 -3.603755161233741e-17 -0.0025975158584777285 1.8553473227796953e-14 -5.6436989918957495e-15 1.8553473227796953e-14 0.0016259758328463652" pbc="T T T"
Si       3.61708598       2.05776406      12.32615163
Si       3.61708598       1.90907344       8.21935274
Si       1.80973631       0.99408455      10.98056979
Si       1.80973631       2.97275296       9.56493459
Si       1.84031333       0.07434531      18.49210493
Si       1.84031333       3.89249220       2.05339945
Si       3.64766300       2.97750330      19.83768678
Si       3.64766300       0.98933420       0.70781760
Si       2.48813091       3.08380490       4.22582107
Si       2.48813091       0.88303260      16.31968331
Si       2.47460875       2.95302282      16.33101355
Si       2.47460875       1.01381469       4.21449082
Si       2.96926840       1.10038615       6.04693112
Si       2.96926840       2.86645136      14.49857325
Si       2.98279056       0.96960406      14.48724301
Si       2.98279056       2.99723344       6.05826136
Si       5.98223764       2.18343911      19.35200375
Si       5.98223764       1.78339839       1.19350063
Si      -0.52483834       3.76681715       9.07925156
Si      -0.52483834       0.20002036      11.46625282
20
Lattice="5.499281599798697 -3.241865184625611e-16 -1.661503475443872e-14 2.3206294812930534e-16 3.936559444176386 -1.7211459139111177e-11 6.144883354270633e-14 8.89296560980839e-11 20.338473233719377" Properties=species:S:1:pos:R:3 unique_starting_index=4 config_type=initial n_minim_iter=6 stress="0.001554371426442896 -2.4159685739583885e-17 -4.8827465587611465e-15 -2.4159685739583885e-17 0.0016937547092764917 -1.7526945818856088e-14 -4.8827465587611465e-15 -1.7526945818856088e-14 -0.002369324950161416" pbc="T T T"
Si       3.65748287       2.02624985      12.20123923
Si       3.65748287       1.91030959       8.13723401
Si       1.77662741       1.01647801      10.89704953
Si       1.77662741       2.92008143       9.44142370
Si       1.84179873       0.05797013      18.30647063
Si       1.84179873       3.87858931       2.03200261
Si       3.72265419       2.98475774      19.61066032
Si       3.72265419       0.95180171       0.72781292
Si       2.51087062       3.03805578       4.15601857
Si       2.51087062       0.89850366      16.18245466
Si       2.49876304       2.93519234      16.16062266
Si       2.49876304       1.00136710       4.17785058
Si       2.98841098       1.06977606       6.01321805
Si       2.98841098       2.86678338      14.32525519
Si       3.00051856       0.96691262      14.34708720
Si       3.00051856       2.96964683       5.99138604
Si       6.03233528       2.14903979      19.16898305
Si       6.03233528       1.78751966       1.16949018
Si      -0.53305368       3.75579938       8.99974643
Si      -0.53305368       0.18076007      11.33872680
20
Lattice="5.4577845904812134 -3.21740240574602e-16 -1.6489659423224437e-14 2.3358134950366493e-16 3.962316581705099 -1.7324167796950935e-11 6.131548597219974e-14 8.873624224130533e-11 20.294337554697147" Properties=species:S:1:pos:R:3 unique_starting_index=4 config_type=initial n_minim_iter=7 stress="-0.005399084830356086 5.755077659257449e-17 -4.720428532823912e-15 5.755077659257449e-17 -0.001520146588381362 2.563795395412315e-14 -4.720428532823912e-15 2.563795395412315e-14 0.004401516481230147" pbc="T T T"
Si       3.62970908       2.02732594      12.17308017
Si       3.62970908       1.93499064       8.12125738
Si       1.74084222       1.01856320      10.87992516
Si       1.74084222       2.94375338       9.41441239
Si       1.82807551       0.04616765      18.26842616
Si       1.82807551       3.91614893       2.02591140
Si       3.71694237       2.99972149      19.56158117
Si       3.71694237       0.96259509       0.73275638
Si       2.49613008       3.05599336       4.13037897
Si       2.49613008       0.90632323      16.16395858
Si       2.48357072       2.97149738      16.11800688
Si       2.48357072       0.99081920       4.17633067
Si       2.96165451       1.07483506       6.01678980
Si       2.96165451       2.88748152      14.27754775
Si       2.97421387       0.99033909      14.32349945
Si       2.97421387       2.97197749       5.97083810
Si       5.99662916       2.15333835      19.12142601
Si       5.99662916       1.80897823       1.17291154
Si      -0.53884457       3.79013653       8.97425723
Si      -0.53884457       0.17218006      11.32008032
20
Lattice="5.5279502105418965 -3.258765532311641e-16 -1.6701651516140258e-14 2.3370541075264124e-16 3.964421073116828 -1.7333517838014628e-11 6.098619771722466e-14 8.82589536422497e-11 20.1853489869103" Properties=species:S:1:pos:R:3 unique_starting_index=4 config_type=initial n_minim_iter=8 stress="0.0019521758789758379 3.381885055171791e-17 -4.918101635706598e-15 3.381885055171791e-17 0.007285482315483238 -1.898795128131238e-14 -4.918101635706598e-15 -1.898795128131238e-14 0.0029359461707065258" pbc="T T T"
Si       3.66996721       1.99525924      12.09822907
Si       3.66996721       1.96916183       8.08711991
Si       1.71154275       0.99956621      10.82968315
Si       1.71154275       2.96485486       9.35566583
Si       1.85798300       0.01304871      18.17979441
Si       1.85798300       3.95137236       2.00555458
Si       3.81640746       2.98177675      19.44834033
Si       3.81640746       0.98264432       0.73700866
Si       2.54233570       3.03308703       4.06846265
Si       2.54233570       0.93133404      16.11688634
Si       2.52682220       2.99981576      16.00572694
Si       2.52682220       0.96460531       4.17962205
Si       2.98561451       1.05087650       6.02421184
Si       2.98561451       2.91354458      14.16113714
Si       3.00112801       1.01760522      14.27229654
Si       3.00112801       2.94681585       5.91305245
Si       6.10564096       2.12851840      18.99750275
Si       6.10564096       1.83590267       1.18784624
Si      -0.57769075       3.81811321       8.90482826
Si      -0.57769075       0.14630786      11.28052073
20
Lattice="5.537901935777548 -3.264632144337781e-16 -1.6731718763589943e-14 2.3190892184563495e-16 3.9339466461122847 -1.7200530105521478e-11 6.100472943381144e-14 8.828443587625256e-11 20.191482656176916" Properties=species:S:1:pos:R:3 unique_starting_index=4 config_type=initial n_minim_iter=9 stress="0.0016120501519287973 -7.256148162799645e-18 -4.4289004508107184e-15 -7.256148162799645e-18 -0.003096082744813074 6.898861736957445e-15 -4.4289004508107184e-15 6.898861736957445e-15 -0.0013881813914396262" pbc="T T T"
Si       3.66212907       1.97003428      12.09549858
Si       3.66212907       1.96391237       8.09598408
Si       1.70650354       0.97914644      10.82712552
Si       1.70650354       2.95480020       9.36435713
Si       1.87577287       0.00306095      18.19172540
Si       1.87577287       3.93088569       1.99975725
Si       3.83139840       2.94611977      19.46009846
Si       3.83139840       0.98782688       0.73138420
Si       2.55497966       2.99453790       4.05737952
Si       2.55497966       0.93940874      16.13410313
Si       2.53532829       2.97928752      15.99919243
Si       2.53532829       0.95465913       4.19229023
Si       2.98292228       1.02756458       6.03836181
Si       2.98292228       2.90638207      14.15312085
Si       3.00257365       1.01231419      14.28803156
Si       3.00257365       2.92163245       5.90345110
Si       6.13252045       2.10083184      18.99485258
Si       6.13252045       1.83311481       1.19663008
Si      -0.59461852       3.80008813       8.89911125
Si      -0.59461852       0.13385852      11.29237140
20
Lattice="5.492816072196033 -3.2380537106258137e-16 -1.659550039092681e-14 2.317269026099353e-16 3.9308589944768646 -1.7187307201192953e-11 6.107327977922707e-14 8.838221075165575e-11 20.214171603794238" Properties=species:S:1:pos:R:3 unique_starting_index=4 config_type=initial n_minim_iter=10 stress="-0.004070645069614826 -1.1987348255797284e-17 -3.1191270941662876e-15 -1.1987348255797284e-17 0.011555091305787198 -5.425004819547928e-14 -3.1191270941662876e-15 -5.425004819547928e-14 -0.0007385403183499532" pbc="T T T"
Si       3.58892578       1.94740178      12.09687287
Si       3.58892578       1.98345722       8.11729873
Si       1.66218606       0.98033946      10.83821027
Si       1.66218606       2.95051953       9.37596134
Si       1.90389029      -0.01802772      18.22438453
Si       1.90389029       3.94888671       1.98978707
Si       3.83063001       2.94576896      19.48304714
Si       3.83063001       0.98509003       0.73112446
Si       2.55771247       2.96962860       4.02411335
Si       2.55771247       0.96123040      16.19005826
Si       2.52439963       3.00084661      15.98628239
Si       2.52439963       0.93001239       4.22788921
Si       2.93510360       1.00419910       6.08297245
Si       2.93510360       2.92665989      14.13119915
Si       2.96841644       1.03541711      14.33497502
Si       2.96841644       2.89544188       5.87919659
Si       6.11578144       2.06133562      19.02116643
Si       6.11578144       1.86952338       1.19300518
Si      -0.62296537       3.83495288       8.91408063
Si      -0.62296537       0.09590612      11.30009098
20
Lattice="5.491712719686476 -3.237403276560528e-16 -1.6592166820903138e-14 2.3161655208051003e-16 3.9289870824707496 -1.717925919079949e-11 6.118531265497383e-14 8.85436400729788e-11 20.251252497170118" Properties=species:S:1:pos:R:3 unique_starting_index=4 config_type=initial n_minim_iter=11 stress="-0.003369870593203935 -1.5258278641630852e-16 -1.4197972386854673e-15 -1.5258278641630852e-16 0.001085096791568638 -9.420611457952297e-15 -1.4197972386854673e-15 -9.420611457952297e-15 -0.0008814512272255272" pbc="T T T"
Si       3.56632737       1.94670507      12.11670641
Si       3.56632737       1.98228201       8.13454609
Si       1.66378726       0.98477872      10.85252988
Si       1.66378726       2.94420836       9.39872262
Si       1.92538535      -0.01778847      18.26017234
Si       1.92538535       3.94677555       1.99108016
Si       3.82792546       2.94927226      19.52434887
Si       3.82792546       0.97971482       0.72690363
Si       2.56606393       2.96683043       4.02698843
Si       2.56606393       0.96215665      16.22426407
Si       2.52508337       3.00426127      16.00965565
Si       2.52508337       0.92472581       4.24159685
Si       2.92564879       1.00233689       6.09863782
Si       2.92564879       2.92665019      14.15261468
Si       2.96662935       1.03976773      14.36722310
Si       2.96662935       2.88921935       5.88402940
Si       6.12214502       2.05151292      19.06509796
Si       6.12214502       1.87747416       1.18615453
Si      -0.63043230       3.84196770       8.93947172
Si      -0.63043230       0.08701938      11.31178078
20
Lattice="5.5135865118482545 -3.2502980308985523e-16 -1.665825432895011e-14 2.314866988481849e-16 3.926784339757249 -1.716970376084743e-11 6.121211634308358e-14 8.858204107337998e-11 20.26012404218985" Properties=species:S:1:pos:R:3 unique_starting_index=4 config_type=initial n_minim_iter=12 stress="0.00016644255674265186 -9.649542839000984e-19 -9.622967048887013e-16 -9.649542839000984e-19 0.001669328753047224 -5.891306915434434e-15 -9.622967048887013e-16 -5.891306915434434e-15 0.0006030018825155741" pbc="T T T"
Si       3.56428972       1.93912895      12.11942695
Si       3.56428972       1.98765539       8.14069709
Si       1.65788398       0.98647477      10.85614291
Si       1.65788398       2.94030957       9.40398113
Si       1.94929679      -0.02426322      18.27075912
Si       1.94929679       3.95104756       1.98936493
Si       3.85570253       2.94986694      19.53404316
Si       3.85570253       0.97691740       0.72608089
Si       2.58739719       2.95888986       4.01720075
Si       2.58739719       0.96789448      16.24292329
Si       2.53809000       3.01071201      16.00708599
Si       2.53809000       0.91607233       4.25303806
Si       2.92618932       0.99549769       6.11286127
Si       2.92618932       2.93128665      14.14726277
Si       2.97549651       1.04731984      14.38310008
Si       2.97549651       2.87946450       5.87702397
Si       6.15849595       2.04071766      19.07728785
Si       6.15849595       1.88606668       1.18283619
Si      -0.64490943       3.84945885       8.94722583
Si      -0.64490943       0.07732549      11.31289821
20
Lattice="5.550751801139403 -3.272207230353607e-16 -1.677054219092353e-14 2.306888406583354e-16 3.9132500111723383 -1.7110667724589518e-11 6.128780546789536e-14 8.869086165515344e-11 20.285175799079546" Properties=species:S:1:pos:R:3 unique_starting_index=4 config_type=initial n_minim_iter=13 stress="0.004569881082776012 2.6645411173493582e-17 -3.574894503352501e-15 2.6645411173493582e-17 -0.011568411535655842 5.691890531147351e-14 -3.574894503352501e-15 5.691890531147351e-14 0.001786660866881233" pbc="T T T"
Si       3.56125121       1.92578904      12.13641404
Si       3.56125121       1.98746097       8.14876176
Si       1.64032069       0.98875019      10.86615272
Si       1.64032069       2.92449982       9.41902308
Si       1.98950059      -0.03083596      18.29134966
Si       1.98950059       3.94408597       1.99382614
Si       3.91043111       2.94537520      19.56161098
Si       3.91043111       0.96787481       0.72356482
Si       2.63329423       2.94132571       4.00835019
Si       2.63329423       0.97192430      16.27682561
Si       2.55629952       3.00806647      16.01626713
Si       2.55629952       0.90518354       4.26890867
Si       2.91745757       0.98470070       6.13423771
Si       2.91745757       2.92854931      14.15093809
Si       2.99445228       1.05144146      14.41149657
Si       2.99445228       2.86180855       5.87367923
Si       6.22232134       2.03457484      19.10912544
Si       6.22232134       1.87867517       1.17605036
Si      -0.67156954       3.83530018       8.96653754
Si      -0.67156954       0.07794984      11.31863826
20
Lattice="5.535920776707623 -3.2634642371307186e-16 -1.6725733067785158e-14 2.302003017200262e-16 3.90496276589275 -1.7074507405640467e-11 6.142101347447336e-14 8.888326615359734e-11 20.32926528491855" Properties=species:S:1:pos:R:3 unique_starting_index=4 config_type=initial n_minim_iter=14 stress="0.00196035156081669 2.0904981399148166e-16 -3.9920304056717745e-15 2.0904981399148166e-16 0.015201838839323953 -4.7935438133464256e-14 -3.9920304056717745e-15 -4.7935438133464256e-14 0.004487916174291648" pbc="T T T"
Si       3.50680773       1.90681901      12.16191178
Si       3.50680773       1.99814375       8.16735351
Si       1.58489373       0.98287488      10.88516983
Si       1.58489373       2.92208789       9.44409545
Si       2.02911305      -0.04566237      18.33198615
Si       2.02911305       3.95062513       1.99727913
Si       3.95102705       2.93535626      19.60872809
Si       3.95102705       0.96960650       0.72053719
Si       2.67459654       2.91920427       3.98550792
Si       2.67459654       0.98575849      16.34375737
Si       2.55062246       3.01804513      16.02609861
Si       2.55062246       0.88691763       4.30316668
Si       2.86132423       0.96672289       6.17912473
Si       2.86132423       2.93823988      14.15014056
Si       2.98529832       1.06556375      14.46779932
Si       2.98529832       2.83939901       5.86146597
Si       6.25021100       2.02730356      19.15159741
Si       6.25021100       1.87765921       1.17766788
Si      -0.71429022       3.83014059       8.98696477
Si      -0.71429022       0.07482218      11.34230052
20
Lattice="5.48001045403184 -3.230504708644227e-16 -1.6556810648096008e-14 2.3047661859597793e-16 3.9096500191418353 -1.709482457734076e-11 6.185182489367855e-14 8.950765487547465e-11 20.47185621810846" Properties=species:S:1:pos:R:3 unique_starting_index=4 config_type=initial n_minim_iter=15 stress="-0.0012991932772046775 3.687387376794559e-16 -6.139275334599295e-15 3.687387376794559e-16 -0.002610527630970816 -9.054254090814579e-16 -6.139275334599295e-15 -9.054254090814579e-16 -0.0026683082245500334" pbc="T T T"
Si       3.46509420       1.93742840      12.26265887
Si       3.46509420       1.97222162       8.20919734
Si       1.57509632       0.97934658      10.95204818
Si       1.57509632       2.93030344       9.51980804
Si       2.01491625      -0.01739661      18.44512545
Si       2.01491625       3.92704663       2.02673077
Si       3.90491413       2.93417159      19.75573615
Si       3.90491413       0.97547843       0.71612007
Si       2.67254906       2.94545885       4.04606093
Si       2.67254906       0.96419117      16.42579529
Si       2.50732659       3.00150170      16.15673717
Si       2.50732659       0.90814832       4.31511904
Si       2.80746140       0.99063384       6.18986718
Si       2.80746140       2.91901618      14.28198904
Si       2.97268387       1.04667669      14.55104715
Si       2.97268387       2.86297333       5.92080906
Si       6.19003943       2.08220646      19.28621881
Si       6.19003943       1.82744356       1.18563741
Si      -0.71002898       3.78226857       9.05029070
Si      -0.71002898       0.12738145      11.42156552
20
Lattice="5.469999267312031 -3.2246030436549093e-16 -1.6526563749066716e-14 2.296731587932332e-16 3.89602066857113 -1.7034807324034296e-11 6.221792660738677e-14 9.003967416769019e-11 20.593029387325732" Properties=species:S:1:pos:R:3 unique_starting_index=4 config_type=initial n_minim_iter=16 stress="-0.0027824557967870006 6.987231692915291e-16 -3.1758764182787316e-15 6.987231692915291e-16 0.014367220638494767 -3.081863747102785e-14 -3.1758764182787316e-15 -3.081863747102785e-14 0.007409571790700427" pbc="T T T"
Si       3.39634513       1.93296559      12.34085260
Si       3.39634513       1.96305508       8.25217679
Si       1.51582921       0.98369953      11.01162950
Si       1.51582921       2.91232114       9.58139989
Si       2.07365414      -0.01504474      18.54869148
Si       2.07365414       3.91106541       2.04433790
Si       3.95417006       2.93170987      19.87791458
Si       3.95417006       0.96431080       0.71511481
Si       2.73903863       2.92804012       4.05017144
Si       2.73903863       0.96798055      16.54285795
Si       2.49542168       3.00146059      16.23407309
Si       2.49542168       0.89456008       4.35895630
Si       2.73096063       0.98002979       6.24634325
Si       2.73096063       2.91599088      14.34668613
Si       2.97457759       1.05345026      14.65547099
Si       2.97457759       2.84257041       5.93755839
Si       6.23154471       2.08851604      19.41413545
Si       6.23154471       1.80750462       1.17889394
Si      -0.76154544       3.75551496       9.11762076
Si      -0.76154544       0.14050571      11.47540863
20
Lattice="5.519485431843019 -3.2537754857279677e-16 -1.6676076795202818e-14 2.2924734355910997e-16 3.8887974259342237 -1.7002773273361502e-11 6.202169702227793e-14 8.975802381202236e-11 20.528080877576915" Properties=species:S:1:pos:R:3 unique_starting_index=4 config_type=initial n_minim_iter=17 stress="0.002155827239793216 5.770101464138221e-16 -2.5494273630633415e-15 5.770101464138221e-16 -0.0046032049168615126 -1.2523765856890571e-14 -2.5494273630633415e-15 -1.2523765856890571e-14 -0.0073250075750775296" pbc="T T T"
Si       3.41418410       1.94345437      12.29841507
Si       3.41418410       1.94534306       8.22966581
Si       1.51770062       0.99146490      10.98945565
Si       1.51770062       2.89733253       9.53862523
Si       2.10530134      -0.00094434      18.49370624
Si       2.10530134       3.88974177       2.03437463
Si       4.00178481       2.93586361      19.80266566
Si       4.00178481       0.95293381       0.72541521
Si       2.77698375       2.92295248       4.04024620
Si       2.77698375       0.96584495      16.48783468
Si       2.51270525       2.99886150      16.18820659
Si       2.51270525       0.88993592       4.33987429
Si       2.74250168       0.97855376       6.22379424
Si       2.74250168       2.91024366      14.30428663
Si       3.00678018       1.05446279      14.60391473
Si       3.00678018       2.83433464       5.92416615
Si       6.30196942       2.07556958      19.35907098
Si       6.30196942       1.81322784       1.16900990
Si      -0.78248399       3.75762656       9.09503054
Si      -0.78248399       0.13117087      11.43305033
20
Lattice="5.531042148250275 -3.260588251339125e-16 -1.6710993218606332e-14 2.2824887208137545e-16 3.8718600287447544 -1.6928388298703963e-11 6.230836717636646e-14 9.017455932915307e-11 20.622963610408345" Properties=species:S:1:pos:R:3 unique_starting_index=4 config_type=initial n_minim_iter=18 stress="0.0032731548224579927 1.4370040666866256e-15 -1.5570542298515393e-15 1.4370040666866256e-15 0.012182371171292474 -5.410329816421136e-14 -1.5570542298515393e-15 -5.410329816421136e-14 6.961471241461594e-07" pbc="T T T"
Si       3.35534687       1.95198854      12.35437041
Si       3.35534687       1.91987148       8.26859320
Si       1.46088710       0.98287782      11.04401820
Si       1.46088710       2.88898221       9.57894541
Si       2.17569528       0.01605853      18.58007501
Si       2.17569528       3.85580150       2.04288860
Si       4.07015505       2.91880783      19.89042721
Si       4.07015505       0.95305220       0.73253640
Si       2.86273060       2.90537123       4.04929882
Si       2.86273060       0.96648880      16.57366479
Si       2.50360595       2.99717442      16.25339219
Si       2.50360595       0.87468560       4.36957142
Si       2.66831155       0.96944122       6.26218298
Si       2.66831155       2.90241881      14.36078063
Si       3.02743620       1.06124441      14.68105323
Si       3.02743620       2.81061562       5.94191039
Si       6.38341788       2.07621910      19.44988584
Si       6.38341788       1.79564093       1.17307777
Si      -0.85237573       3.73157094       9.13840403
Si      -0.85237573       0.14028908      11.48455958
20
Lattice="5.5227586337244965 -3.2557050612605076e-16 -1.6685966152936524e-14 2.2771622166588384e-16 3.8628245060968296 -1.6888196263093584e-11 6.245444749927662e-14 9.03894769798549e-11 20.671313604479657" Properties=species:S:1:pos:R:3 unique_starting_index=4 config_type=initial n_minim_iter=19 stress="0.0016070701110735314 1.987599824166301e-15 -1.3463950660868796e-15 1.987599824166301e-15 0.011259641667856379 -3.2680228222682354e-14 -1.3463950660868796e-15 -3.2680228222682354e-14 0.003995188921124839" pbc="T T T"
Si       3.32168592       1.96612004      12.37882268
Si       3.32168592       1.89670447       8.29249092
Si       1.43092030       0.97097315      11.07770183
Si       1.43092030       2.89185136       9.59361177
Si       2.20107271       0.03470778      18.62814773
Si       2.20107271       3.82811672       2.04316588
Si       4.09183833       2.90238540      19.92926857
Si       4.09183833       0.96043911       0.74204503
Si       2.89836034       2.89889427       4.06413980
Si       2.89836034       0.96393024      16.60717380
Si       2.48865708       2.99446930      16.29536835
Si       2.48865708       0.86835520       4.37594526
Si       2.62439829       0.96748201       6.27151700
Si       2.62439829       2.89534249      14.39979660
Si       3.03410155       1.06305705      14.71160206
Si       3.03410155       2.79976746       5.95971154
Si       6.41280135       2.07565628      19.48773838
Si       6.41280135       1.78716823       1.18357522
Si      -0.89004271       3.71858048       9.15208158
Si      -0.89004271       0.14424403      11.51923203
20
Lattice="5.5172132180662805 -3.2524359997239083e-16 -1.6669211732887785e-14 2.2767643277011843e-16 3.8621495540862982 -1.6885085650870644e-11 6.237559006051325e-14 9.027618703040031e-11 20.64521319190702" Properties=species:S:1:pos:R:3 unique_starting_index=4 config_type=initial n_minim_iter=20 stress="-3.331409991490958e-05 3.2070075712388702e-15 -6.602064189858014e-16 3.2070075712388702e-15 -0.00292069502254653 1.4404443461710997e-14 -6.602064189858014e-16 1.4404443461710997e-14 0.0006818099230575807" pbc="T T T"
Si       3.32750178       1.97006508      12.35851075
Si       3.32750178       1.89208448       8.28670244
Si       1.43301778       0.96671060      11.06943838
Si       1.43301778       2.89543895       9.57577481
Si       2.18971144       0.03899030      18.60930904
Si       2.18971144       3.82315925       2.03590415
Si       4.08419544       2.89778538      19.89838140
Si       4.08419544       0.96436418       0.74683179
Si       2.88763136       2.89818640       4.06504339
Si       2.88763136       0.96396316      16.58016980
Si       2.48518210       2.99383152      16.28138125
Si       2.48518210       0.86831804       4.36383194
Si       2.62958186       0.96711162       6.25756321
Si       2.62958186       2.89503793      14.38764999
Si       3.03203112       1.06275674      14.68643854
Si       3.03203112       2.79939282       5.95877465
Si       6.40564497       2.06969089      19.45752525
Si       6.40564497       1.79245866       1.18768794
Si      -0.88843175       3.72353344       9.13491865
Si      -0.88843175       0.13861612      11.51029454
20
Lattice="5.52122372941621 -3.25480022437429e-16 -1.6681328731127065e-14 2.272854107805597e-16 3.8555165205999087 -1.6856054609202615e-11 6.23566491785114e-14 9.02489150094075e-11 20.638944096150293" Properties=species:S:1:pos:R:3 unique_starting_index=4 config_type=initial n_minim_iter=21 stress="-0.0006663143383321921 3.086853999520365e-15 -3.0323971998071614e-18 3.086853999520365e-15 -0.0008186857913260784 1.860817906673332e-16 -3.0323971998071614e-18 1.860817906673332e-16 -0.0004413854650437143" pbc="T T T"
Si       3.31436819       1.97533551      12.35167782
Si       3.31436819       1.88018101       8.28726628
Si       1.41305502       0.96700667      11.07213284
Si       1.41305502       2.88850985       9.56681126
Si       2.20685554       0.04757725      18.60673833
Si       2.20685554       3.80793927       2.03220577
Si       4.10816871       2.89476493      19.88628331
Si       4.10816871       0.96075159       0.75266079
Si       2.91158704       2.89094750       4.06562196
Si       2.91158704       0.96456902      16.57332214
Si       2.48023137       2.99257086      16.27981636
Si       2.48023137       0.86294566       4.35912773
Si       2.60963669       0.96318924       6.25385009
Si       2.60963669       2.89232728      14.38509400
Si       3.04099236       1.06481260      14.67859978
Si       3.04099236       2.79070392       5.96034431
Si       6.43213085       2.06595924      19.45419792
Si       6.43213085       1.78955728       1.18474618
Si      -0.91090712       3.71731554       9.13472587
Si      -0.91090712       0.13820098      11.50421822
