16
Lattice="3.4098946152933336 -1.3828582537222423e-14 -8.848083834916124e-15 1.4507151068712779e-13 35.772181407095054 -1.8126766342732392e-14 3.3650434500443574e-14 6.593543668249073e-15 12.968280765213981" Properties=species:S:1:pos:R:3 unique_starting_index=98 config_type=initial n_minim_iter=5 energy=-2616.776191807852 free_energy=-2616.776191807852 pbc="T T T"
Si       1.22267952      21.53815182       5.70105768
Si       2.18721509       3.65206111       7.26722309
Si       2.92762683      32.12012029       7.26722309
Si       0.48226778      14.23402959       5.70105768
Si       2.18721509      14.23402959       7.26722309
Si       1.22267952      32.12012029       5.70105768
Si       0.48226778       3.65206111       5.70105768
Si       2.92762683      21.53815182       7.26722309
Si       1.22312051      22.68125322       7.26683832
Si       2.18677410       4.79516252       5.70144244
Si       2.92806782      30.97701889       5.70144244
Si       0.48182680      13.09092819       7.26683832
Si       2.18677410      13.09092819       5.70144244
Si       1.22312051      30.97701889       7.26683832
Si       0.48182680       4.79516252       7.26683832
Si       2.92806782      22.68125322       5.70144244
