6
Lattice="2.4349067380461182 -0.5633897691179891 0.01809619630102144 -0.9767385513497742 7.00631446495017 -2.081239392968926 -1.0936552334470786 -4.406632749643081 8.71607468724275" Properties=species:S:1:pos:R:3 unique_starting_index=56 config_type=initial n_minim_iter=1 energy=-976.7895020585362 free_energy=-976.7895020585362 pbc="T T T"
Si      -0.46173240       2.91033812       5.49683769
Si      -0.07685953       5.74792300      -1.32514716
Si       0.08095738       5.10663057       1.12260723
Si      -0.63534513       0.42741043       4.87744325
Si       0.59981749      -2.38417448       5.65647879
Si      -0.02055138       3.21382816      -0.59470428
6
Lattice="2.438971063359972 -0.5513480175548714 0.024331735208138017 -0.9508527470563188 6.998485647021701 -2.082307544966098 -1.0957157974412046 -4.410241947975909 8.706391498554302" Properties=species:S:1:pos:R:3 unique_starting_index=56 config_type=initial n_minim_iter=2 stress="0.0013269901785630147 0.0003278709447044773 0.0002517509368058179 0.0003278709447044773 0.0014426818065767177 0.0004762614861552374 0.0002517509368058179 0.0004762614861552374 0.0007761469263188964" pbc="T T T"
Si      -0.43480833       2.90437480       5.48937602
Si      -0.05234870       5.74851523      -1.32889257
Si       0.10965269       5.10549881       1.12256462
Si      -0.62389420       0.42409145       4.87214952
Si       0.60269777      -2.38078035       5.65509970
Si      -0.00473966       3.21041653      -0.59094241
6
Lattice="2.4376209922285317 -0.5488130410319946 0.025381849748118895 -0.9457582789576492 6.9904757547657015 -2.083593815000418 -1.0956445367500571 -4.409140881903791 8.701169118032094" Properties=species:S:1:pos:R:3 unique_starting_index=56 config_type=initial n_minim_iter=3 stress="-0.0004054241683274029 0.0005106440456763173 0.0002743695225775559 0.0005106440456763173 -0.00018526030075124186 0.00032925698441972856 0.0002743695225775559 0.00032925698441972856 -0.0005540923463911732" pbc="T T T"
Si      -0.43033934       2.89836977       5.48357977
Si      -0.04829300       5.74311851      -1.33126184
Si       0.11424115       5.09955860       1.12023564
Si      -0.62199589       0.42146936       4.86836877
Si       0.60217712      -2.37975766       5.65251041
Si      -0.00190355       3.20649251      -0.59069790
6
Lattice="2.4386405636160102 -0.5492917650470552 0.02531489023821931 -0.9479189303906729 6.988402166494761 -2.090105713087771 -1.0965547606164205 -4.413570885492146 8.70842858704103" Properties=species:S:1:pos:R:3 unique_starting_index=56 config_type=initial n_minim_iter=4 stress="0.00030532169700608615 0.00019583548565247212 0.00012162079776822918 0.00019583548565247212 -0.0006902854976260542 -0.00022254048449432226 0.00012162079776822918 -0.00022254048449432226 -0.00015683936456167914" pbc="T T T"
Si      -0.43247256       2.89209112       5.48228229
Si      -0.05006028       5.74144754      -1.33834035
Si       0.11261852       5.09575559       1.11667671
Si      -0.62399238       0.41752053       4.87028041
Si       0.60129042      -2.38384812       5.65723168
Si      -0.00205408       3.20458451      -0.59233414
6
Lattice="2.43732727119802 -0.5503921811890095 0.0248764751421762 -0.9491130841643621 6.9928509258094484 -2.095666709221169 -1.0973348226436463 -4.4210864927743065 8.715574964479483" Properties=species:S:1:pos:R:3 unique_starting_index=56 config_type=initial n_minim_iter=5 stress="-0.000377089535958142 0.0002666514076899402 -8.19247682779479e-05 0.0002666514076899402 -0.0004640439104223268 -0.0005886562130568299 -8.19247682779479e-05 -0.0005886562130568299 0.0008065731718404296" pbc="T T T"
Si      -0.43456807       2.88940268       5.48010021
Si      -0.05208899       5.74597452      -1.34714486
Si       0.11100709       5.09731077       1.11426041
Si      -0.62677041       0.41496459       4.87309212
Si       0.59825644      -2.39036111       5.66283430
Si      -0.00093528       3.20504508      -0.59170747
6
Lattice="2.4392058116663535 -0.5532012423305669 0.024643232098030127 -0.956105731810307 6.999974440129654 -2.0951590906698643 -1.09528838300688 -4.427370597026505 8.702741975395453" Properties=species:S:1:pos:R:3 unique_starting_index=56 config_type=initial n_minim_iter=6 stress="0.0009790559715086825 -0.0004283868157653785 -0.00023728545738500978 -0.0004283868157653785 -0.0008573380820092373 -0.0005248884220383509 -0.00023728545738500978 -0.0005248884220383509 0.00019482607460081006" pbc="T T T"
Si      -0.43733750       2.88937541       5.46325272
Si      -0.05852854       5.75431909      -1.35735882
Si       0.10748219       5.10166600       1.11157886
Si      -0.63183762       0.41495442       4.86687658
Si       0.59611616      -2.39849762       5.65840400
Si       0.00110591       3.20500424      -0.58467712
6
Lattice="2.4376515045012903 -0.5530219918956668 0.02529376404625178 -0.9539608522221589 7.006813389537472 -2.0923664434096905 -1.093181152095522 -4.430149397790135 8.696310331552427" Properties=species:S:1:pos:R:3 unique_starting_index=56 config_type=initial n_minim_iter=7 stress="-2.3148415189571077e-05 -3.705425831881248e-05 -0.00015807286076370802 -3.705425831881248e-05 -9.32571258367768e-05 -0.0001666624567566206 -0.00015807286076370802 -0.0001666624567566206 0.00028612170271566953" pbc="T T T"
Si      -0.43394027       2.89394553       5.45915436
Si      -0.05739758       5.76100818      -1.35756196
Si       0.10995381       5.10791683       1.11237868
Si      -0.63076190       0.41702999       4.86494022
Si       0.59573842      -2.40004873       5.65629149
Si       0.00373752       3.20768489      -0.58151171
6
Lattice="2.4372787436958863 -0.5532115261500841 0.026722871154987463 -0.9542440440261122 7.012732441842425 -2.0876075210972274 -1.087559309102662 -4.430536933127628 8.684821017986119" Properties=species:S:1:pos:R:3 unique_starting_index=56 config_type=initial n_minim_iter=8 stress="-0.00033586036196082606 0.00012802618901151878 2.9739499779371826e-05 0.00012802618901151878 0.0003821183900556573 0.0003386194381012211 2.9739499779371826e-05 0.0003386194381012211 -0.0002546255958715695" pbc="T T T"
Si      -0.42938059       2.89961154       5.45345154
Si      -0.05786292       5.76587061      -1.35486608
Si       0.11185595       5.11365728       1.11256608
Si      -0.62838406       0.42033918       4.86109174
Si       0.59824600      -2.39968863       5.65181546
Si       0.00596997       3.21023856      -0.57843050
6
Lattice="2.438370241764569 -0.5534269929626577 0.029384481744485758 -0.9576005446353494 7.0124120039367925 -2.0944018098869392 -1.079404239782257 -4.435902957814103 8.688941252768274" Properties=species:S:1:pos:R:3 unique_starting_index=56 config_type=initial n_minim_iter=9 stress="0.000185460466238703 -6.533267787825526e-05 0.00011326431412680572 -6.533267787825526e-05 -7.889751407327257e-05 -3.613108020751e-05 0.00011326431412680572 -3.613108020751e-05 -8.794049750042393e-05" pbc="T T T"
Si      -0.42507561       2.89485300       5.45027910
Si      -0.06071824       5.76317991      -1.36014001
Si       0.11248288       5.11108448       1.10557964
Si      -0.62644606       0.41771537       4.86322228
Si       0.60252326      -2.40236339       5.65844274
Si       0.00904024       3.20913583      -0.58116081
6
Lattice="2.4373874919437424 -0.554132258103648 0.028097723143357057 -0.9571449104439452 7.016675908757412 -2.094984995592757 -1.083138840368026 -4.439518960978614 8.690230740468976" Properties=species:S:1:pos:R:3 unique_starting_index=56 config_type=initial n_minim_iter=10 stress="-0.0005200581509583872 7.01993618808812e-05 -1.8385416752971808e-05 7.01993618808812e-05 0.0001645153922285767 -0.000110762285291391 -1.8385416752971808e-05 -0.000110762285291391 0.0003425351698576636" pbc="T T T"
Si      -0.42840491       2.89571680       5.44792695
Si      -0.06165270       5.76607920      -1.36359112
Si       0.11165184       5.11441929       1.10482798
Si      -0.63153410       0.41823976       4.86490241
Si       0.59749591      -2.40430116       5.66025087
Si       0.01338111       3.20910411      -0.58035835
6
Lattice="2.4394113304811196 -0.5517901223338353 0.024198369266989997 -0.949160437200677 7.011365376094805 -2.0886234362912934 -1.100748385430595 -4.433182941047421 8.686134593432973" Properties=species:S:1:pos:R:3 unique_starting_index=56 config_type=initial n_minim_iter=11 stress="6.946070929651408e-05 5.654958372253592e-05 -0.00010369003979787388 5.654958372253592e-05 1.558308856411854e-05 2.451168510055198e-05 -0.00010369003979787388 2.451168510055198e-05 2.6540380820328905e-05" pbc="T T T"
Si      -0.43587677       2.89678951       5.44839023
Si      -0.05588897       5.75947873      -1.35822178
Si       0.11502526       5.11474472       1.10836412
Si      -0.64364462       0.42185965       4.86533197
Si       0.58536831      -2.39509895       5.65564870
Si       0.02596187       3.20327323      -0.58110503
6
Lattice="2.4397923819924436 -0.551543075788798 0.024919840484349493 -0.9494280839386969 7.010473928203599 -2.0882583879419467 -1.098712121666498 -4.432996984145918 8.682248058216166" Properties=species:S:1:pos:R:3 unique_starting_index=56 config_type=initial n_minim_iter=12 stress="6.0271578198146465e-05 3.331246722707942e-05 5.604996774641996e-06 3.331246722707942e-05 -0.00010921443367883799 1.675402210962866e-05 5.604996774641996e-06 1.675402210962866e-05 -0.00021233840632259323" pbc="T T T"
Si      -0.43496719       2.89574955       5.44534547
Si      -0.05646669       5.75844839      -1.35762105
Si       0.11609849       5.11517327       1.10804993
Si      -0.64552360       0.42309605       4.86272542
Si       0.58449600      -2.39377155       5.65329629
Si       0.03274832       3.19988589      -0.58054383
6
Lattice="2.439463565250392 -0.5526881256650296 0.025763106390294856 -0.9530943533459266 7.011388960683843 -2.089026821466169 -1.0935077525389614 -4.433134321730837 8.682572270361792" Properties=species:S:1:pos:R:3 unique_starting_index=56 config_type=initial n_minim_iter=13 stress="1.0334497319390127e-06 -1.634599743608568e-05 7.218949227543217e-05 -1.634599743608568e-05 -3.7356850833960835e-05 -9.754457562747359e-06 7.218949227543217e-05 -9.754457562747359e-06 -0.00010016303761655821" pbc="T T T"
Si      -0.43466163       2.89592505       5.44560523
Si      -0.05963647       5.75910787      -1.35711727
Si       0.11400569       5.11547269       1.10765098
Si      -0.64477630       0.42383232       4.86196792
Si       0.58644065      -2.39455113       5.65330169
Si       0.03336960       3.19912005      -0.58017491
6
Lattice="2.439175446118332 -0.5535827515903591 0.02601093545711777 -0.9556408629589465 7.01191639906277 -2.089288661713912 -1.0908058357326376 -4.4328272017571795 8.683213309367336" Properties=species:S:1:pos:R:3 unique_starting_index=56 config_type=initial n_minim_iter=14 stress="-3.219843967623867e-05 -4.563235991542776e-05 8.573052086246704e-05 -4.563235991542776e-05 4.030666780431141e-05 -2.7794935109762483e-05 8.573052086246704e-05 -2.7794935109762483e-05 1.5075890093647873e-05" pbc="T T T"
Si      -0.43520047       2.89647753       5.44637016
Si      -0.06185333       5.75960524      -1.35642594
Si       0.11204382       5.11541967       1.10729007
Si      -0.64463907       0.42440178       4.86167347
Si       0.58722160      -2.39512761       5.65326670
Si       0.03339374       3.19874683      -0.57961236
6
Lattice="2.4390699057100313 -0.5539073894885466 0.025307212975777954 -0.956178845997147 7.01087756289418 -2.088302046149792 -1.09226729148688 -4.430992415758774 8.683461716862878" Properties=species:S:1:pos:R:3 unique_starting_index=56 config_type=initial n_minim_iter=15 stress="-3.823702113814661e-05 -3.992298534294995e-05 3.556860358749148e-05 -3.992298534294995e-05 7.991928297093495e-05 -2.366036902568425e-05 3.556860358749148e-05 -2.366036902568425e-05 9.13045496372471e-05" pbc="T T T"
Si      -0.43722096       2.89748214       5.44760370
Si      -0.06251020       5.75905912      -1.35484733
Si       0.11054722       5.11452016       1.10707064
Si      -0.64652677       0.42524217       4.86152793
Si       0.58525534      -2.39447940       5.65235834
Si       0.03499441       3.19759993      -0.57832536
6
Lattice="2.4394691959397865 -0.5527288766561625 0.024259947811225306 -0.9525682819580286 7.00869498269942 -2.086886897906282 -1.097969249892483 -4.429467653324026 8.682620214822007" Properties=species:S:1:pos:R:3 unique_starting_index=56 config_type=initial n_minim_iter=16 stress="1.2533248804744089e-05 1.4967828717777069e-05 -3.1531376871972445e-05 1.4967828717777069e-05 -1.037388530453346e-05 6.624078630359662e-06 -3.1531376871972445e-05 6.624078630359662e-06 -2.0659486370296437e-05" pbc="T T T"
Si      -0.43825310       2.89753770       5.44765998
Si      -0.05958502       5.75747500      -1.35435965
Si       0.11228085       5.11353180       1.10745123
Si      -0.64876654       0.42513133       4.86181028
Si       0.58193667      -2.39266615       5.65139195
Si       0.03717998       3.19679172      -0.57786121
