16
Lattice="8.875346756625358 -0.6923708754028592 0.7680560854002078 -4.620813031236891 7.609155312086274 -0.7680559853730832 -2.207834162895655 -3.408835158570951 7.959043837082948" Properties=species:S:1:pos:R:3 unique_starting_index=82 config_type=initial n_minim_iter=12 energy=-2604.9884437573764 free_energy=-2604.9884437573764 pbc="T T T"
Si      -0.37366609       3.67912588       1.91867996
Si       0.88340602       5.54109179       2.02481962
Si      -4.73927521       4.23273882       5.51417386
Si       3.04118099       1.57864369       6.38836955
Si       1.39609521       4.07966981       3.26398600
Si      -0.80056303       5.08777681       0.58916904
Si      -4.29859081       2.47254343       6.85947987
Si       2.68628882       3.28606804       4.95271901
Si       4.80324443       4.33730172       0.56693421
Si      -1.51958363      -1.59021078       6.08951303
Si       5.88346836      -1.37696894       4.93048412
Si      -2.59980757       4.12405988       1.72596313
Si      -4.03150178       1.43734548       4.73304749
Si       4.94653362       2.76669581       4.41771254
Si       2.44048912       4.30817094       1.13755364
Si      -1.52545727      -0.10412964       8.01320640
