14
Lattice="6.776757736989041 0.2161382572050505 1.0408443878980103 3.0833975615075957 8.06047948023828 -0.9217169968948289 1.8986499221431465 0.5759609202021654 6.77726881006517" Properties=species:S:1:pos:R:3 unique_starting_index=86 config_type=initial n_minim_iter=1 energy=-2277.52824443689 free_energy=-2277.52824443689 pbc="T T T"
Si       7.67609952       4.47080794       4.98896890
Si       7.54115038       1.91246157       4.26750683
Si       5.13236133       4.50622299       2.51211523
Si       8.28241517       3.36475004       2.47210998
Si       5.82395569       5.14073226       6.16394417
Si       3.11437396       2.09429792      -0.00299621
Si       3.29212183       5.72366477       1.44312019
Si       8.71797025       2.29332903       6.32715318
Si       5.26711784       2.92114469       0.74254344
Si       6.70036137       6.73756427       4.68419562
Si       3.56041339       0.80346443       6.56040179
Si       7.61477663       5.62135000       2.85073619
Si       5.58058257       3.27588826       4.59283801
Si       4.33958319       7.80880163       1.11246767
14
Lattice="6.7489998788844465 0.2334205003255549 1.0484124751464383 3.0824971787869857 8.04422499929583 -0.8675745037343203 1.8960661048475953 0.6228477209929657 6.792562427254393" Properties=species:S:1:pos:R:3 unique_starting_index=86 config_type=initial n_minim_iter=2 stress="-0.0009714037105008524 -0.00016833932582096826 -0.00019475092447173757 -0.00016833932582096826 -0.001487189908158606 0.0007227217848093581 -0.00019475092447173757 0.0007227217848093581 -0.0019671295970999578" pbc="T T T"
Si       7.65389137       4.50732517       5.03318014
Si       7.51418462       1.95011496       4.29025418
Si       5.12154545       4.52268244       2.54994391
Si       8.25469759       3.38746599       2.50533022
Si       5.81163426       5.18137217       6.21147374
Si       3.10536898       2.09505195       0.01250652
Si       3.28818901       5.72722193       1.48665823
Si       8.68892363       2.34512774       6.35701872
Si       5.25038584       2.92939515       0.76685781
Si       6.68514998       6.76838481       4.74125351
Si       3.55036701       0.85052441       6.57844091
Si       7.59292650       5.64153159       2.89685493
Si       5.56505236       3.30890226       4.62291909
Si       4.33273575       7.80811197       1.16722616
14
Lattice="6.750306269990754 0.23950388432055042 1.0551137354835831 3.088023842850319 8.05768711995693 -0.8613066054901176 1.8998460125083876 0.6315614775294119 6.815526012520418" Properties=species:S:1:pos:R:3 unique_starting_index=86 config_type=initial n_minim_iter=3 stress="0.0008776296967360192 -1.1052356736875273e-05 -0.00010293572211986261 -1.1052356736875273e-05 0.001468884966750073 0.0011690181851283384 -0.00010293572211986261 0.0011690181851283384 0.0018702005729599237" pbc="T T T"
Si       7.66004296       4.52386803       5.05838856
Si       7.51769610       1.96264334       4.30827633
Si       5.12827934       4.53537772       2.56494831
Si       8.25963880       3.40044487       2.52140963
Si       5.81845306       5.19922679       6.23910227
Si       3.10780747       2.10019352       0.01570935
Si       3.29302513       5.73898671       1.49915908
Si       8.69428502       2.36103883       6.38259097
Si       5.25400041       2.93853459       0.77512937
Si       6.69228562       6.78952077       4.76618166
Si       3.55404396       0.85993104       6.60198129
Si       7.59850090       5.65806494       2.91441141
Si       5.57003973       3.32201275       4.64151735
Si       4.33776863       7.82383817       1.17911057
14
Lattice="6.7265417211756 0.254415892203712 1.0722985532697669 3.0950051001009546 8.054163731879182 -0.8761656058036676 1.9091066826494867 0.6191011532691627 6.834616416029603" Properties=species:S:1:pos:R:3 unique_starting_index=86 config_type=initial n_minim_iter=4 stress="-0.0017112051072177483 0.001207522434788736 0.0011791972948835062 0.001207522434788736 -0.0006423590645784486 -0.0004979572150804782 0.0011791972948835062 -0.0004979572150804782 0.0016326297869998087" pbc="T T T"
Si       7.65180425       4.52172552       5.08469962
Si       7.49981930       1.96982096       4.32572653
Si       5.13707259       4.53370562       2.57259317
Si       8.24525729       3.40886841       2.54430348
Si       5.82104404       5.19102014       6.25707468
Si       3.10475660       2.10397871       0.01621820
Si       3.29726483       5.73050982       1.50078146
Si       8.67927173       2.36627241       6.40625828
Si       5.24691566       2.94774505       0.78555618
Si       6.69170653       6.79440809       4.77834155
Si       3.55510455       0.84839331       6.62565787
Si       7.58664908       5.66108528       2.92270812
Si       5.56728480       3.31936816       4.64742291
Si       4.33502776       7.81818729       1.16514301
14
Lattice="6.743328057256703 0.2395429557543268 1.0467440328062205 3.0890402458524986 8.05889864912844 -0.881133726021418 1.8924268488553577 0.6162569818286274 6.799803544470171" Properties=species:S:1:pos:R:3 unique_starting_index=86 config_type=initial n_minim_iter=5 stress="0.00017183707192128557 4.0703215451033296e-05 0.0005618787633545354 4.0703215451033296e-05 0.00024145500506267883 -7.870015783986698e-05 0.0005618787633545354 -7.870015783986698e-05 -0.0001255780313808439" pbc="T T T"
Si       7.64761956       4.50625953       5.05788430
Si       7.49945191       1.95807281       4.27273158
Si       5.16276741       4.52657522       2.54833290
Si       8.26469498       3.39156536       2.52466254
Si       5.80270617       5.18739046       6.21965149
Si       3.11866715       2.09725864       0.00224175
Si       3.28800385       5.72286547       1.49623256
Si       8.67968413       2.35331871       6.33743593
Si       5.26410385       2.94570259       0.77551155
Si       6.67601440       6.81244285       4.74342333
Si       3.53925732       0.83522197       6.59176353
Si       7.57961948       5.65115469       2.88443378
Si       5.56209743       3.31104064       4.58865381
Si       4.30484999       7.81690681       1.12879743
14
Lattice="6.718990959259072 0.23380317318368563 0.9813661471616216 3.086892872155029 8.036061293691194 -0.921061099212913 1.8206647075705813 0.6075170089553992 6.79558260972885" Properties=species:S:1:pos:R:3 unique_starting_index=86 config_type=initial n_minim_iter=6 stress="-0.0010401402980597468 -0.00041976829245242897 -0.0025955582975989537 -0.00041976829245242897 -0.0015715763701469414 -0.0005042727494470687 -0.0025955582975989537 -0.0005042727494470687 0.0015092734994817975" pbc="T T T"
Si       7.57245711       4.48630408       5.00629092
Si       7.43392875       1.94050061       4.19292279
Si       5.15880880       4.51461246       2.49554136
Si       8.23982779       3.37189932       2.45962105
Si       5.72067361       5.16990535       6.17580468
Si       3.11730558       2.08503968      -0.03705881
Si       3.26324640       5.69290600       1.47610526
Si       8.59799395       2.33795331       6.24888110
Si       5.25974480       2.93407547       0.72781532
Si       6.60373718       6.79558296       4.68494733
Si       3.46159668       0.83217616       6.56890709
Si       7.51948741       5.62756997       2.81581333
Si       5.50375233       3.29180069       4.52411083
Si       4.24749533       7.78790109       1.06774152
14
Lattice="6.7333184616402875 0.24151742730225217 0.9752290854364482 3.100627435349858 8.063638874084859 -0.9085921560854656 1.8241073668506398 0.6179852964953256 6.76143806076084" Properties=species:S:1:pos:R:3 unique_starting_index=86 config_type=initial n_minim_iter=7 stress="-0.00015790577118535964 0.00012940218551642024 -0.001373982128163893 0.00012940218551642024 -0.0002507654085542125 9.716972315714359e-05 -0.001373982128163893 9.716972315714359e-05 -0.0006607753372288456" pbc="T T T"
Si       7.58259791       4.51701955       5.00079595
Si       7.44380205       1.95095884       4.15871044
Si       5.21045298       4.54549611       2.48139940
Si       8.28434248       3.38931085       2.46385434
Si       5.73113759       5.20602901       6.15259852
Si       3.13050062       2.08968735      -0.04273392
Si       3.27558926       5.70294402       1.48878413
Si       8.61768819       2.36158588       6.20509237
Si       5.29293040       2.94568597       0.73002417
Si       6.61464696       6.83121107       4.66953443
Si       3.46387224       0.85681484       6.53338728
Si       7.52528945       5.65419509       2.81652814
Si       5.51768712       3.30747144       4.49058114
Si       4.22603118       7.81392799       1.05647609
14
Lattice="6.744221774550036 0.22193000254594283 0.9846716504178005 3.0797330087134056 8.050989836543971 -0.8976757800046417 1.8352624111709739 0.6168583426994398 6.759577387886037" Properties=species:S:1:pos:R:3 unique_starting_index=86 config_type=initial n_minim_iter=8 stress="9.844734290189027e-05 -0.0005761375312646677 0.00014177362631479843 -0.0005761375312646677 -0.0005650734328763993 0.00015851364252092028 0.00014177362631479843 0.00015851364252092028 -0.00032915881463738145" pbc="T T T"
Si       7.57469966       4.50509983       5.02249846
Si       7.44922219       1.92086307       4.15711836
Si       5.24107113       4.54494588       2.47990369
Si       8.32024033       3.36331735       2.48727903
Si       5.72872211       5.20161738       6.16201966
Si       3.13080764       2.07550725      -0.04330916
Si       3.26760521       5.68045387       1.50935580
Si       8.63363247       2.33970358       6.20648604
Si       5.31356794       2.92013038       0.73914622
Si       6.60251426       6.80418946       4.68193508
Si       3.47240861       0.86925251       6.52694692
Si       7.51155198       5.63095477       2.84679505
Si       5.52395907       3.28744691       4.49501044
Si       4.17166827       7.79646462       1.05979211
14
Lattice="6.74397756411872 0.23724817402356768 0.9757534079253513 3.0980716051543715 8.079296027282385 -0.8971525234403013 1.8293619797919145 0.624389887646131 6.746391565087016" Properties=species:S:1:pos:R:3 unique_starting_index=86 config_type=initial n_minim_iter=9 stress="7.028214624862514e-05 0.0008826304563700006 2.290893459661641e-06 0.0008826304563700006 0.0012217297053359545 -0.00019621673635427772 2.290893459661641e-06 -0.00019621673635427772 -0.0006672444837576327" pbc="T T T"
Si       7.57094444       4.54038754       5.00762492
Si       7.44673723       1.93848895       4.14138586
Si       5.25700169       4.57770735       2.46283923
Si       8.34194055       3.39221392       2.47703114
Si       5.73121516       5.23406093       6.14852816
Si       3.13625539       2.08856567      -0.04756991
Si       3.27882939       5.69694926       1.50892317
Si       8.63227658       2.36507386       6.18607546
Si       5.32694935       2.93259898       0.72998253
Si       6.60832428       6.83210631       4.66928368
Si       3.46449765       0.88840856       6.50677596
Si       7.52077129       5.66281943       2.84647593
Si       5.52827339       3.30668887       4.48653688
Si       4.17128663       7.82835184       1.05343298
14
Lattice="6.766281407828731 0.19758959533934584 0.9998159540205446 3.055173190800003 8.012044771383083 -0.8662417255502147 1.85073808587124 0.6312734261233021 6.781204890637109" Properties=species:S:1:pos:R:3 unique_starting_index=86 config_type=initial n_minim_iter=10 stress="0.0009742642089945389 -0.00010136003821070343 0.0012833027190184197 -0.00010136003821070343 -0.00045215592929574564 8.657102173964903e-05 0.0012833027190184197 8.657102173964903e-05 0.0011887714072541264" pbc="T T T"
Si       7.55593078       4.49326776       5.06426552
Si       7.46381863       1.88880657       4.18477596
Si       5.26879172       4.54453761       2.47684777
Si       8.40091299       3.33428861       2.53020882
Si       5.72590547       5.19716206       6.21509071
Si       3.14002785       2.06292978      -0.03298053
Si       3.25730918       5.63317867       1.55082168
Si       8.66033564       2.31350931       6.23951024
Si       5.34368903       2.86729656       0.75196130
Si       6.58701559       6.76608937       4.73413178
Si       3.47926819       0.88734349       6.53236919
Si       7.52899026       5.59188983       2.92493744
Si       5.54581950       3.26368036       4.53840742
Si       4.09786406       7.76935709       1.08116506
14
Lattice="6.724440616370308 0.1675995360335119 0.9709139676139525 3.0038410477236286 8.01532225447598 -0.8633109239664283 1.8077192538854847 0.6380587983295998 6.778775108934309" Properties=species:S:1:pos:R:3 unique_starting_index=86 config_type=initial n_minim_iter=11 stress="-0.0020191591547863577 -0.0008885309923887131 -0.0005240288408237165 -0.0008885309923887131 0.0013727263358673282 -0.00026025067880155794 -0.0005240288408237165 -0.00026025067880155794 0.000848627346990707" pbc="T T T"
Si       7.44634859       4.47823101       5.05510939
Si       7.38731818       1.86830633       4.15501900
Si       5.23567160       4.54235159       2.44155869
Si       8.38037328       3.31227599       2.52254518
Si       5.62911777       5.19864755       6.22170211
Si       3.12970905       2.05868486      -0.04206924
Si       3.20052807       5.61082653       1.56302003
Si       8.57043846       2.28510745       6.19578419
Si       5.31308183       2.83856662       0.73653987
Si       6.47945716       6.78491913       4.73138661
Si       3.41302101       0.87733063       6.51524041
Si       7.46528507       5.57238783       2.92643887
Si       5.49045496       3.25118451       4.50866350
Si       3.98339652       7.78112796       1.04925976
14
Lattice="6.773453342000856 0.18685237906875063 0.9706751797108206 3.0487059588319654 7.9779641438961555 -0.8531568189471871 1.8223951036835249 0.6489597853368789 6.779464706817073" Properties=species:S:1:pos:R:3 unique_starting_index=86 config_type=initial n_minim_iter=12 stress="0.0008251892322343605 0.0006863287193783578 -0.0005896666733133884 0.0006863287193783578 -0.0008506492737491716 -0.00040762235283967963 -0.0005896666733133884 -0.00040762235283967963 0.00030775474477887435" pbc="T T T"
Si       7.50840247       4.47952256       5.06066680
Si       7.44549018       1.88834307       4.15875740
Si       5.28612387       4.53059818       2.44124877
Si       8.46431759       3.32500224       2.53238236
Si       5.68052043       5.19211052       6.23417586
Si       3.16253615       2.05851534      -0.03657430
Si       3.23778880       5.58549984       1.57076884
Si       8.63668241       2.30168132       6.19627126
Si       5.35858876       2.83711769       0.74032362
Si       6.54046831       6.77963022       4.74092237
Si       3.43557500       0.88542085       6.51510243
Si       7.54858613       5.56594400       2.93901131
Si       5.54190799       3.25498306       4.50474632
Si       4.02449723       7.75611638       1.04977374
14
Lattice="6.7692031476153565 0.1582806546502202 1.0000994382340265 3.0025450825807476 7.981222229437362 -0.8131996435634232 1.847965270317309 0.6620009580573253 6.778300998478275" Properties=species:S:1:pos:R:3 unique_starting_index=86 config_type=initial n_minim_iter=13 stress="-0.0005102787566119207 -0.0006813725765120848 0.0013173515560085422 -0.0006813725765120848 0.0006245913556635404 0.0015123469233962175 0.0013173515560085422 0.0015123469233962175 -0.0024087154232333018" pbc="T T T"
Si       7.49485560       4.47060231       5.10037057
Si       7.44998803       1.87573543       4.19298316
Si       5.27002335       4.51518357       2.46777698
Si       8.47733884       3.31002660       2.58986936
Si       5.67175631       5.19302992       6.27072488
Si       3.15019124       2.04728854      -0.01208357
Si       3.21263236       5.58306368       1.60190173
Si       8.63910242       2.27868561       6.23162318
Si       5.33892280       2.81636410       0.77033966
Si       6.51176622       6.77488758       4.77760084
Si       3.45309309       0.90187380       6.52067417
Si       7.54780719       5.55470173       3.00006979
Si       5.54327010       3.25036291       4.51781130
Si       3.96367310       7.76890112       1.08009306
14
Lattice="6.780574078988692 0.14463704548550937 0.975150546635711 3.000044870979074 7.947098263697813 -0.8397149322279284 1.8231539373075427 0.647910075294576 6.79351159034817" Properties=species:S:1:pos:R:3 unique_starting_index=86 config_type=initial n_minim_iter=14 stress="0.0006392744908607412 -0.00044389317662837366 -0.00022191643220187545 -0.00044389317662837366 0.0009142111209205714 0.00044509876590160147 -0.00022191643220187545 0.00044509876590160147 0.00034474172701038286" pbc="T T T"
Si       7.47063530       4.43719228       5.10043454
Si       7.44704662       1.85353547       4.16273479
Si       5.30205154       4.47916441       2.43487905
Si       8.54237676       3.29095187       2.59460595
Si       5.63792770       5.15577780       6.27168493
Si       3.15963011       2.02653408      -0.03063302
Si       3.20629322       5.53668303       1.60289685
Si       8.62161518       2.24009245       6.20372111
Si       5.35425584       2.78721823       0.74696828
Si       6.47362173       6.72923963       4.75115401
Si       3.42354546       0.91258555       6.52237708
Si       7.56010336       5.51871053       2.99847484
Si       5.53555364       3.21693879       4.47211104
Si       3.88610728       7.74169780       1.03154710
14
Lattice="6.773488124254564 0.15414979766246983 0.9897906464747123 3.0098782914342332 7.929242647676241 -0.8603183263132863 1.8332216881698014 0.6307130682581176 6.819197793780006" Properties=species:S:1:pos:R:3 unique_starting_index=86 config_type=initial n_minim_iter=15 stress="-0.0013203837974200196 0.0007680268761776673 0.00027166218217210795 0.0007680268761776673 -0.0013474079287449097 -0.0010914000050002075 0.00027166218217210795 -0.0010914000050002075 0.0002239823331435666" pbc="T T T"
Si       7.48675581       4.41646900       5.11682550
Si       7.45837272       1.86175818       4.19066585
Si       5.29085995       4.45531358       2.44061871
Si       8.55036472       3.30019074       2.61966747
Si       5.64999618       5.12078297       6.28614874
Si       3.15683191       2.02878385      -0.02812719
Si       3.22193050       5.52663248       1.59320271
Si       8.61486091       2.22821958       6.24389145
Si       5.33491787       2.78473400       0.74200751
Si       6.48043979       6.70534715       4.75320781
Si       3.43140034       0.89717192       6.54975525
Si       7.58690376       5.50807173       3.00658059
Si       5.54171854       3.20131461       4.48627640
Si       3.89515139       7.72951026       1.01725770
14
Lattice="6.801791454872086 0.13509475484690694 0.9781830340881734 3.0022473470067084 7.901699146663504 -0.8583556519223121 1.8276703520374595 0.6309051531777241 6.820805901867604" Properties=species:S:1:pos:R:3 unique_starting_index=86 config_type=initial n_minim_iter=16 stress="0.00045924668070074877 0.0003702818720980013 -0.00024370374314234796 0.0003702818720980013 -6.460940863752427e-05 -0.0006982911959270361 -0.00024370374314234796 -0.0006982911959270361 0.0010665465402186832" pbc="T T T"
Si       7.49428385       4.38742523       5.12516365
Si       7.48847788       1.84923522       4.17611641
Si       5.31765459       4.43184078       2.42362639
Si       8.63218670       3.28558930       2.64483734
Si       5.64119987       5.09157557       6.28415818
Si       3.16883686       2.01939652      -0.03716479
Si       3.23246163       5.49931008       1.60427289
Si       8.61867957       2.19892463       6.23625828
Si       5.34444183       2.74972433       0.72010546
Si       6.45937552       6.67992388       4.74754047
Si       3.42242743       0.89849615       6.54018628
Si       7.61823724       5.47538807       3.02004969
Si       5.55307107       3.16888882       4.47557834
Si       3.83106347       7.71482212       0.99523755
14
Lattice="6.814316719253672 0.1284006579673715 0.9702261617691604 3.0017438262631995 7.894172410677722 -0.861203553844811 1.8237983770451895 0.6285389174307643 6.813840943343084" Properties=species:S:1:pos:R:3 unique_starting_index=86 config_type=initial n_minim_iter=17 stress="0.0007251789480884679 0.00019322623916114218 -0.0003982927612056283 0.00019322623916114218 0.00031843335586978196 -0.00011202344490161678 -0.0003982927612056283 -0.00011202344490161678 0.0008384134417188272" pbc="T T T"
Si       7.50753205       4.37291274       5.12605620
Si       7.50876614       1.84860400       4.15856767
Si       5.33598535       4.42103509       2.41637995
Si       8.67184511       3.28503485       2.65996908
Si       5.63984236       5.07541567       6.26448914
Si       3.17000957       2.01721352      -0.04666041
Si       3.24928514       5.49613367       1.60551160
Si       8.61395402       2.18677149       6.22723340
Si       5.34013456       2.73857540       0.70180362
Si       6.44829946       6.66955637       4.73223791
Si       3.41704202       0.89930052       6.52947420
Si       7.62786271       5.46391319       3.01385213
Si       5.55607068       3.14966754       4.46432193
Si       3.79813485       7.71297114       0.97783069
14
Lattice="6.8279805800765905 0.10774635765710536 0.9675042242225317 2.984488862864714 7.873625494134731 -0.8616550249258532 1.8242313707900892 0.621814936879611 6.808190273267814" Properties=species:S:1:pos:R:3 unique_starting_index=86 config_type=initial n_minim_iter=18 stress="-0.0004043742745294275 -0.00021114462226557625 -0.00016681688434445178 -0.00021114462226557625 0.0004189590162374048 0.0003914704404330748 -0.00016681688434445178 0.0003914704404330748 -0.0004833300612885375" pbc="T T T"
Si       7.51154142       4.33778999       5.14114978
Si       7.53285968       1.83428818       4.14173005
Si       5.36684077       4.39397816       2.40684501
Si       8.74132920       3.27121168       2.70236072
Si       5.62991716       5.04316570       6.24789599
Si       3.16530477       2.00919145      -0.05503010
Si       3.26588086       5.47588116       1.61640893
Si       8.60468783       2.14897437       6.22345995
Si       5.32646373       2.71190955       0.68447811
Si       6.41569196       6.64188003       4.72086640
Si       3.40694918       0.89514996       6.51769648
Si       7.63400873       5.43074094       3.02302787
Si       5.56194759       3.10892132       4.45118619
Si       3.71569350       7.70498055       0.94697132
14
Lattice="6.861869944303783 0.10117268192247761 0.9834063211309786 2.9917495527987823 7.854595455955588 -0.8695722946464504 1.8483641595657567 0.607151250545223 6.815835954475215" Properties=species:S:1:pos:R:3 unique_starting_index=86 config_type=initial n_minim_iter=19 stress="0.0005099681943989675 -0.00047355646528073075 0.0005027695155062256 -0.00047355646528073075 -0.000814316674742977 0.00033395043800641316 0.0005027695155062256 0.00033395043800641316 -0.0006837668715510069" pbc="T T T"
Si       7.56609245       4.30489423       5.15576953
Si       7.59378609       1.82496183       4.15590005
Si       5.40597540       4.36602198       2.42071249
Si       8.80714289       3.26510815       2.74197344
Si       5.67368560       5.01470702       6.23787129
Si       3.15539491       2.00957463      -0.04924169
Si       3.31121219       5.47012328       1.61408734
Si       8.65113386       2.11394430       6.25501629
Si       5.31696518       2.71183302       0.68400741
Si       6.44754012       6.60469638       4.71977354
Si       3.42788905       0.87495292       6.52789746
Si       7.66881398       5.40504265       3.02595866
Si       5.60557411       3.07783727       4.46910110
Si       3.71073848       7.69382448       0.93016327
14
Lattice="6.8627309248090524 0.09975066864290363 0.9843064203996178 2.9903964447204543 7.8507672855422355 -0.869226326258069 1.8477791279904485 0.6082431054851787 6.82606276354094" Properties=species:S:1:pos:R:3 unique_starting_index=86 config_type=initial n_minim_iter=20 stress="0.00026220584745719876 -0.00011630771365060679 0.0002270390241649216 -0.00011630771365060679 -0.00029220323904890263 -2.782213096598836e-05 0.0002270390241649216 -2.782213096598836e-05 -0.0001546354817948241" pbc="T T T"
Si       7.55680772       4.30140313       5.16485151
Si       7.59661972       1.82460288       4.16206467
Si       5.41907734       4.36046515       2.41954243
Si       8.83469459       3.27008113       2.76030183
Si       5.66984479       5.01701719       6.25004603
Si       3.14920773       2.01092963      -0.04551127
Si       3.31820770       5.46249845       1.62054758
Si       8.64829879       2.10397235       6.26336095
Si       5.31188881       2.71081515       0.68420781
Si       6.44018460       6.60091825       4.72636705
Si       3.41866433       0.87534131       6.53336470
Si       7.67471115       5.40041996       3.03838416
Si       5.61461206       3.07331091       4.47134859
Si       3.68284795       7.69854862       0.91969106
14
Lattice="6.853715314565781 0.10706557886292586 0.9850205585588582 2.994047507500422 7.863526905069956 -0.86633969884828 1.8453606336756436 0.6141416407875756 6.832836275517486" Properties=species:S:1:pos:R:3 unique_starting_index=86 config_type=initial n_minim_iter=21 stress="-5.5329119759238935e-05 0.00031397170722370854 -0.00014016065948277727 0.00031397170722370854 0.00015155525263330964 -0.00022835929862016335 -0.00014016065948277727 -0.00022835929862016335 -1.855351553981916e-05" pbc="T T T"
Si       7.54432423       4.31567089       5.16328809
Si       7.58862593       1.83259621       4.17180295
Si       5.41666775       4.36968311       2.42675920
Si       8.82250722       3.28636719       2.76090525
Si       5.66824732       5.03999750       6.26180526
Si       3.13742195       2.01825154      -0.03839622
Si       3.32149063       5.47391722       1.62043552
Si       8.63969570       2.11319202       6.27012226
Si       5.30518492       2.72661007       0.68795365
Si       6.44496530       6.61522383       4.73331574
Si       3.41153602       0.87658698       6.53852854
Si       7.66788744       5.41506638       3.03925535
Si       5.61853282       3.08889151       4.47870685
Si       3.68852504       7.71389020       0.92450674
