10
Lattice="4.035675324231184 -0.6665545049167182 5.630863126600386e-17 -2.975451025322243 7.028423861496897 -5.937412839894574e-16 -7.642146405228917e-31 6.333951678880568e-16 7.4978274743319036" Properties=species:S:1:pos:R:3 unique_starting_index=14 config_type=initial n_minim_iter=1 energy=-1626.458040275832 free_energy=-1626.458040275832 pbc="T T T"
Si      -0.31382978       3.60917135       0.82840080
Si       1.37405408       2.75269801       0.82840080
Si       1.12319367       0.48770855       0.40322468
Si      -0.06296937       5.87416080       0.40322468
Si       0.01435232       1.18644345       4.56261763
Si       1.04587198       5.17542591       4.56261763
Si       0.43967675       4.39552717       2.37408299
Si       0.62054755       1.96634218       2.37408299
Si      -1.07786109       4.72983124       5.58375642
Si       2.13808539       1.63203811       5.58375642
10
Lattice="4.035853607926225 -0.6659933038116229 5.626122259070456e-17 -2.9746882460712696 7.02792044364965 -5.93698756679651e-16 -7.6090225999327314e-31 6.337743220851911e-16 7.502315719428185" Properties=species:S:1:pos:R:3 unique_starting_index=14 config_type=initial n_minim_iter=2 stress="0.0012366247492804564 0.0011110486167184238 -1.4107054668541419e-16 0.0011110486167184238 0.003029420072190085 1.5986125568724866e-17 -1.4107054668541419e-16 1.5986125568724866e-17 0.0019818354862817028" pbc="T T T"
Si      -0.31342855       3.60891632       0.82876597
Si       1.37459391       2.75301082       0.82876597
Si       1.12329665       0.48788740       0.40337298
Si      -0.06213129       5.87403974       0.40337298
Si       0.01457334       1.18649246       4.56531487
Si       1.04659202       5.17543468       4.56531487
Si       0.44044031       4.39565573       2.37576450
Si       0.62072505       1.96627141       2.37576450
Si      -1.07730922       4.72947682       5.58709629
Si       2.13847458       1.63245032       5.58709629
10
Lattice="4.031799388463994 -0.6665311237000355 5.630665608723151e-17 -2.9762872713398494 7.005812345918183 -5.918311273800643e-16 -7.608279019500684e-31 6.338690703760558e-16 7.503437304142446" Properties=species:S:1:pos:R:3 unique_starting_index=14 config_type=initial n_minim_iter=3 stress="-0.0165144685554335 0.008570945611699991 2.3086794356304702e-15 0.008570945611699991 -0.004814609330003854 2.431923563882356e-15 2.3086794356304702e-15 2.431923563882356e-15 0.00028645041237374837" pbc="T T T"
Si      -0.31566238       3.59544721       0.83009520
Si       1.37117449       2.74383401       0.83009520
Si       1.12083356       0.48612081       0.40136313
Si      -0.06532144       5.85316041       0.40136313
Si       0.01502243       1.18380641       4.56522624
Si       1.04048968       5.15547482       4.56522624
Si       0.43777942       4.38100645       2.37780491
Si       0.61773269       1.95827477       2.37780491
Si      -1.07992373       4.71080560       5.58788226
Si       2.13543584       1.62847562       5.58788226
10
Lattice="4.034735167623968 -0.6738188627791821 5.692230358423821e-17 -2.9975449910306637 6.967056822906826 -5.885571708788772e-16 -7.632423087040489e-31 6.340773731774595e-16 7.505903092557842" Properties=species:S:1:pos:R:3 unique_starting_index=14 config_type=initial n_minim_iter=4 stress="-0.0012355274094755409 -0.0008905707039015088 -9.666082025733095e-17 -0.0008905707039015088 -0.008449325945415163 -5.888940002481086e-17 -9.666082025733095e-17 -5.888940002481086e-17 0.0002526516082274553" pbc="T T T"
Si      -0.32784374       3.56988405       0.83326946
Si       1.36503391       2.72335391       0.83326946
Si       1.11768914       0.48114809       0.39667105
Si      -0.08049897       5.81208987       0.39667105
Si       0.01454702       1.17899592       4.56494967
Si       1.02264315       5.11424204       4.56494967
Si       0.42712662       4.35182489       2.38240963
Si       0.61006355       1.94141307       2.38240963
Si      -1.09514140       4.67483143       5.58959454
Si       2.13233158       1.61840653       5.58959454
10
Lattice="4.043233221023117 -0.6934170447489628 5.857790232954757e-17 -3.0304491489071563 7.012423515755771 -5.923896202292995e-16 -7.630472098543907e-31 6.337470155340224e-16 7.501992477603869" Properties=species:S:1:pos:R:3 unique_starting_index=14 config_type=initial n_minim_iter=5 stress="-0.0010433530950915866 -0.0032410164639740326 1.2777186317468507e-15 -0.0032410164639740326 -0.0007911409763887209 1.4057582718242843e-15 1.2777186317468507e-15 1.4057582718242843e-15 -0.0011654517900259109" pbc="T T T"
Si      -0.34108410       3.58015762       0.84731921
Si       1.35386817       2.73884886       0.84731921
Si       1.11135077       0.48252296       0.37952797
Si      -0.09856670       5.83648351       0.37952797
Si       0.01897808       1.19637286       4.55753930
Si       0.99380599       5.12263361       4.55753930
Si       0.41466774       4.37498537       2.38950837
Si       0.59811633       1.94402110       2.38950837
Si      -1.11979262       4.67925928       5.58582689
Si       2.13257669       1.63974719       5.58582689
10
Lattice="4.060288616735672 -0.6684972309302257 5.647274724142458e-17 -3.0039660060882003 6.986135862915025 -5.901689139858645e-16 -7.637507934084562e-31 6.344653731929912e-16 7.510496050199427" Properties=species:S:1:pos:R:3 unique_starting_index=14 config_type=initial n_minim_iter=6 stress="0.0055484420773284655 0.0001638004879760107 -6.22528116911834e-17 0.0001638004879760107 -0.00022959313841038306 -8.037482950894344e-17 -6.22528116911834e-17 -8.037482950894344e-17 5.1898432552073603e-05" pbc="T T T"
Si      -0.32345066       3.57104601       0.86500117
Si       1.37977327       2.74659262       0.86500117
Si       1.11746624       0.49224658       0.36360422
Si      -0.06114363       5.82539205       0.36360422
Si       0.03296604       1.20359323       4.56094496
Si       1.02335657       5.11404540       4.56094496
Si       0.44656682       4.37446977       2.39541688
Si       0.60975579       1.94316886       2.39541688
Si      -1.10199344       4.65046838       5.59035126
Si       2.15831605       1.66717025       5.59035126
10
Lattice="4.03345610193882 -0.6648901266518981 5.616802931776168e-17 -2.9760281097478067 6.9974735515380635 -5.911266897166927e-16 -7.764121488198823e-31 6.385171756920333e-16 7.558459340161333" Properties=species:S:1:pos:R:3 unique_starting_index=14 config_type=initial n_minim_iter=7 stress="-0.0016167602279405244 0.00010509612822878161 -1.0955385470224143e-15 0.00010509612822878161 0.0014014358751559786 -1.1340852736769066e-15 -1.0955385470224143e-15 -1.1340852736769066e-15 -2.826808716345232e-05" pbc="T T T"
Si      -0.32260744       3.57882463       0.88553830
Si       1.38003543       2.75375879       0.88553830
Si       1.11055146       0.49818857       0.35153472
Si      -0.05312347       5.83439486       0.35153472
Si       0.03901145       1.21129073       4.59167595
Si       1.01841654       5.12129269       4.59167595
Si       0.45080323       4.38676943       2.41144577
Si       0.60662476       1.94581400       2.41144577
Si      -1.09252639       4.64941285       5.62309526
Si       2.14995438       1.68317057       5.62309526
10
Lattice="4.033645089363151 -0.6499927413567327 5.4909540523183884e-17 -2.955626535590743 6.964755017802405 -5.883627209217991e-16 -7.671173255628444e-31 6.425449653210316e-16 7.6061383773125435" Properties=species:S:1:pos:R:3 unique_starting_index=14 config_type=initial n_minim_iter=8 stress="-0.0005897840295387254 0.0010393844000861725 -1.1711832114620607e-16 0.0010393844000861725 -0.00172782589241734 -3.6390335498999746e-17 -1.1711832114620607e-16 -3.6390335498999746e-17 -0.0005229197300624388" pbc="T T T"
Si      -0.31199998       3.57037338       0.90578935
Si       1.39001854       2.74438890       0.90578935
Si       1.12074752       0.50792272       0.33523027
Si      -0.04272897       5.80683956       0.33523027
Si       0.04454023       1.20319078       4.62979481
Si       1.03347832       5.11157149       4.62979481
Si       0.46631571       4.38222045       2.42621532
Si       0.61170285       1.93254183       2.42621532
Si      -1.08130068       4.63655454       5.65371038
Si       2.15931923       1.67820774       5.65371038
10
Lattice="4.023816048832729 -0.6559714210311804 5.541460239998884e-17 -2.9588440612652818 6.964439930576812 -5.883361032479678e-16 -7.619445010670914e-31 6.392304340745529e-16 7.566902549973914" Properties=species:S:1:pos:R:3 unique_starting_index=14 config_type=initial n_minim_iter=9 stress="0.0021599074012962458 0.0019567992338980615 -4.837688051686508e-17 0.0019567992338980615 0.00040508240629419113 -8.6628367437177e-17 -4.837688051686508e-17 -8.6628367437177e-17 0.0040512801545972196" pbc="T T T"
Si      -0.31899023       3.56687779       0.91670975
Si       1.38396222       2.74159072       0.91670975
Si       1.12558407       0.51763592       0.30152457
Si      -0.06061209       5.79083259       0.30152457
Si       0.04778435       1.19834417       4.61561201
Si       1.01718763       5.11012434       4.61561201
Si       0.46599998       4.39783778       2.42528604
Si       0.59897201       1.91063073       2.42528604
Si      -1.09045534       4.64131931       5.61964368
Si       2.15542733       1.66714920       5.61964368
10
Lattice="4.0309799791623915 -0.6709928320169426 5.668356853262047e-17 -2.9891178807598897 6.97151731271297 -5.889339803879376e-16 -7.649678567675042e-31 6.403540346745154e-16 7.5802031936726415" Properties=species:S:1:pos:R:3 unique_starting_index=14 config_type=initial n_minim_iter=10 stress="0.00011339871994752572 -0.00040352677107579905 -7.183882992045435e-17 -0.00040352677107579905 -0.0003897080601210177 -5.942137592053207e-17 -7.183882992045435e-17 -5.942137592053207e-17 0.00030354330922305155" pbc="T T T"
Si      -0.33011201       3.56310761       0.92514056
Si       1.37197410       2.73741687       0.92514056
Si       1.12547114       0.51539556       0.29071933
Si      -0.08360905       5.78512892       0.29071933
Si       0.04474571       1.19640024       4.62549061
Si       0.99711639       5.10412424       4.62549061
Si       0.45226927       4.39811754       2.43207855
Si       0.58959283       1.90240694       2.43207855
Si      -1.11184171       4.64287188       5.62974226
Si       2.15370380       1.65765260       5.62974226
10
Lattice="4.036600827719595 -0.6791597579130771 5.737348723464719e-17 -3.0059653931070947 6.9807199908836886 -5.89711396500127e-16 -7.684521116446343e-31 6.412364691211792e-16 7.590649028396254" Properties=species:S:1:pos:R:3 unique_starting_index=14 config_type=initial n_minim_iter=11 stress="-0.0003178467289520625 -0.000306261086010824 -2.0397437746091048e-16 -0.000306261086010824 0.001934426691655885 -4.9524643087216944e-17 -2.0397437746091048e-16 -4.9524643087216944e-17 -0.0010612116522423312" pbc="T T T"
Si      -0.33772647       3.55890963       0.94162945
Si       1.36836191       2.74265061       0.94162945
Si       1.12532898       0.51459994       0.26523306
Si      -0.09469355       5.78696029       0.26523306
Si       0.04206989       1.19339951       4.63533442
Si       0.98856555       5.10816072       4.63533442
Si       0.45164723       4.40673903       2.43738836
Si       0.57898820       1.89482120       2.43738836
Si      -1.12831069       4.65425066       5.64274517
Si       2.15894613       1.64730957       5.64274517
10
Lattice="4.0305519603723905 -0.6769724286363447 5.718870787033059e-17 -3.001243183140087 6.959244958479654 -5.878972467612166e-16 -7.684213550976151e-31 6.413217368688904e-16 7.591658386998715" Properties=species:S:1:pos:R:3 unique_starting_index=14 config_type=initial n_minim_iter=12 stress="-0.00018063244081478665 -0.001213454485162618 7.477141672381174e-16 -0.001213454485162618 -0.0010459315309837985 1.1485513523624793e-15 7.477141672381174e-16 1.1485513523624793e-15 -0.0033715930121605495" pbc="T T T"
Si      -0.34098946       3.54449790       0.94261398
Si       1.37029823       2.73777463       0.94261398
Si       1.12069329       0.50897724       0.26018997
Si      -0.09138452       5.77329529       0.26018997
Si       0.03879028       1.18905543       4.63375449
Si       0.99051849       5.09321710       4.63375449
Si       0.45551278       4.39115908       2.43504008
Si       0.57379599       1.89111345       2.43504008
Si      -1.12841218       4.64622994       5.65258324
Si       2.15772095       1.63604259       5.65258324
10
Lattice="4.0301800104927725 -0.6798339980228905 5.743044512398433e-17 -3.0066799470648773 6.954841102401549 -5.875252215086357e-16 -7.740515412409089e-31 6.427108996959131e-16 7.6081026286646285" Properties=species:S:1:pos:R:3 unique_starting_index=14 config_type=initial n_minim_iter=13 stress="-0.0006889317227147582 0.00423673795039987 -2.791026023860342e-16 0.00423673795039987 0.0015500506457948083 1.580130679001416e-16 -2.791026023860342e-16 1.580130679001416e-16 0.007289377518680168" pbc="T T T"
Si      -0.34343703       3.54089225       0.94612744
Si       1.36693709       2.73411486       0.94612744
Si       1.12239064       0.50987817       0.25221454
Si      -0.09889058       5.76512894       0.25221454
Si       0.03845587       1.19175079       4.64130243
Si       0.98504419       5.08325631       4.64130243
Si       0.45861983       4.38755313       2.43751376
Si       0.56488023       1.88745397       2.43751376
Si      -1.13189467       4.64803666       5.67718468
Si       2.15539473       1.62697044       5.67718468
10
Lattice="4.0247884273017895 -0.6865289531255718 5.79960159144277e-17 -3.0151236328492312 6.9502452533280605 -5.871369772331497e-16 -7.706245249827793e-31 6.450181053508387e-16 7.635414219951499" Properties=species:S:1:pos:R:3 unique_starting_index=14 config_type=initial n_minim_iter=14 stress="-0.0004426890850665069 0.0001499843195180612 2.7101282538342202e-15 0.0001499843195180612 -4.421164973779367e-06 3.4474074747114747e-15 2.7101282538342202e-15 3.4474074747114747e-15 0.0018231718766640356" pbc="T T T"
Si      -0.34925875       3.53816401       0.95240693
Si       1.35892354       2.72555229       0.95240693
Si       1.12267232       0.51021880       0.24466573
Si      -0.11300753       5.75349750       0.24466573
Si       0.03832002       1.19428260       4.65631677
Si       0.97134477       5.06943370       4.65631677
Si       0.45510460       4.38125774       2.44343066
Si       0.55456019       1.88245856       2.44343066
Si      -1.13846146       4.64629720       5.70761611
Si       2.14812625       1.61741910       5.70761611
10
Lattice="4.024564752872861 -0.6845397849294669 5.782797663533748e-17 -3.0115519323082647 6.949897156086951 -5.871075709669709e-16 -7.645162957647133e-31 6.447150774418913e-16 7.631827121254851" Properties=species:S:1:pos:R:3 unique_starting_index=14 config_type=initial n_minim_iter=15 stress="0.0003848942861220685 -0.00015997609395859716 3.733424190240874e-15 -0.00015997609395859716 7.98283660822707e-05 4.298729772454941e-15 3.733424190240874e-15 4.298729772454941e-15 0.0005806723848356139" pbc="T T T"
Si      -0.34754346       3.53927251       0.95281483
Si       1.36055628       2.72608486       0.95281483
Si       1.12361863       0.51153087       0.24258210
Si      -0.11060581       5.75382651       0.24258210
Si       0.03989323       1.19499667       4.65425665
Si       0.97311959       5.07036071       4.65425665
Si       0.45873683       4.38306152       2.44226937
Si       0.55427598       1.88229585       2.44226937
Si      -1.13613122       4.64640984       5.70593400
Si       2.14914404       1.61894753       5.70593400
10
Lattice="4.024031167039451 -0.681664462684904 5.758507757930266e-17 -3.005907916891124 6.951368561280328 -5.872318710982663e-16 -7.449051284529419e-31 6.442560360660082e-16 7.626393210144622" Properties=species:S:1:pos:R:3 unique_starting_index=14 config_type=initial n_minim_iter=16 stress="9.240849803368877e-06 -2.7546381299906624e-05 5.802896054779498e-15 -2.7546381299906624e-05 -0.00012853318527182572 6.3529982183408914e-15 5.802896054779498e-15 6.3529982183408914e-15 -0.0011444702560479783" pbc="T T T"
Si      -0.34445191       3.54254231       0.95158466
Si       1.36257516       2.72716179       0.95158466
Si       1.12424036       0.51232369       0.24245836
Si      -0.10611711       5.75738041       0.24245836
Si       0.04220713       1.19567017       4.65091323
Si       0.97591612       5.07403392       4.65091323
Si       0.46433467       4.38614466       2.43953001
Si       0.55378857       1.88355944       2.43953001
Si      -1.13226942       4.64760941       5.70340412
Si       2.15039267       1.62209469       5.70340412
10
Lattice="4.022384050895543 -0.6840986622028448 5.779071184037596e-17 -3.0083724383465054 6.954761628337985 -5.875185077654872e-16 -7.426396566688997e-31 6.443251142186228e-16 7.627210924103945" Properties=species:S:1:pos:R:3 unique_starting_index=14 config_type=initial n_minim_iter=17 stress="-0.0002601799468966846 -2.3733974377149716e-05 6.311527783399119e-16 -2.3733974377149716e-05 -4.467695913518784e-05 9.764087934323593e-16 6.311527783399119e-16 9.764087934323593e-16 -0.0002653926692696502" pbc="T T T"
Si      -0.34554825       3.54496736       0.95126786
Si       1.35955986       2.72569561       0.95126786
Si       1.12252301       0.50986484       0.24176958
Si      -0.10851140       5.76079813       0.24176958
Si       0.04358931       1.19370629       4.65231904
Si       0.97042230       5.07695668       4.65231904
Si       0.46708255       4.38848961       2.43730709
Si       0.54692906       1.88217335       2.43730709
Si      -1.13572582       4.64942686       5.70672662
Si       2.14973743       1.62123611       5.70672662
10
Lattice="4.02200150864342 -0.683379560827864 5.77299641987833e-17 -3.006743960885174 6.955331156118361 -5.8756661985466275e-16 -7.291027196456179e-31 6.443132842697587e-16 7.6270708868568855" Properties=species:S:1:pos:R:3 unique_starting_index=14 config_type=initial n_minim_iter=18 stress="2.3089719830422427e-05 4.858995377645948e-05 1.1116794400143431e-15 4.858995377645948e-05 8.003228778118436e-05 1.4441267693934745e-15 1.1116794400143431e-15 1.4441267693934745e-15 0.00027634270639817824" pbc="T T T"
Si      -0.34470538       3.54611838       0.95070297
Si       1.35996292       2.72583322       0.95070297
Si       1.12246898       0.50999990       0.24354634
Si      -0.10721143       5.76195170       0.24354634
Si       0.04429431       1.19380861       4.65249060
Si       0.97096323       5.07814299       4.65249060
Si       0.46834493       4.38938573       2.43671696
Si       0.54691261       1.88256587       2.43671696
Si      -1.13499939       4.64913259       5.70567646
Si       2.15025694       1.62281901       5.70567646
10
Lattice="4.020634906098209 -0.6827255553110837 5.76747156703904e-17 -3.004439941048495 6.9562844001105875 -5.876471471994916e-16 -7.4142473300640535e-31 6.4429018894162795e-16 7.626797495466225" Properties=species:S:1:pos:R:3 unique_starting_index=14 config_type=initial n_minim_iter=19 stress="0.0006386982284303471 0.00019163635740876526 5.516929254144379e-16 0.00019163635740876526 0.0002393937607918383 9.03188297148643e-16 5.516929254144379e-16 9.03188297148643e-16 0.0013967556934437653" pbc="T T T"
Si      -0.34373490       3.54806350       0.95084969
Si       1.35992987       2.72549535       0.95084969
Si       1.12259043       0.51068045       0.24614566
Si      -0.10639547       5.76287840       0.24614566
Si       0.04638418       1.19424730       4.65345439
Si       0.96981078       5.07931154       4.65345439
Si       0.47343423       4.39234576       2.43417524
Si       0.54276074       1.88121308       2.43417524
Si      -1.13651403       4.64900217       5.70400693
Si       2.15270899       1.62455668       5.70400693
10
Lattice="4.021905830921711 -0.6851551043615242 5.787995707317865e-17 -3.009119952481011 6.959240600118345 -5.878968785792326e-16 -7.370196309326282e-31 6.438715737135027e-16 7.62184212965711" Properties=species:S:1:pos:R:3 unique_starting_index=14 config_type=initial n_minim_iter=20 stress="6.15656027804997e-05 5.356433797554801e-05 -1.2472092456268389e-15 5.356433797554801e-05 -1.3755684955370053e-05 -9.65024642516476e-16 -1.2472092456268389e-15 -9.65024642516476e-16 7.748333875809814e-05" pbc="T T T"
Si      -0.34589145       3.54724146       0.95141103
Si       1.35867733       2.72684404       0.95141103
Si       1.12264759       0.51043567       0.24666441
Si      -0.10986172       5.76364982       0.24666441
Si       0.04643659       1.19535076       4.65010301
Si       0.96634929       5.07873474       4.65010301
Si       0.47680630       4.39467681       2.42968178
Si       0.53597958       1.87940868       2.42968178
Si      -1.14324427       4.65275687       5.70168282
Si       2.15603015       1.62132862       5.70168282
10
Lattice="4.020733485536314 -0.6858406343197512 5.793786869684165e-17 -3.0087321322617164 6.9635839138383595 -5.88263789385369e-16 -7.191659174816411e-31 6.43732569861635e-16 7.620196668888839" Properties=species:S:1:pos:R:3 unique_starting_index=14 config_type=initial n_minim_iter=21 stress="-0.00019938149981616374 -0.00026098236759175 -3.5754913072870835e-15 -0.00026098236759175 0.0001374205303490038 -3.3468706657909543e-15 -3.5754913072870835e-15 -3.3468706657909543e-15 -0.0003442894781467609" pbc="T T T"
Si      -0.34635941       3.54893919       0.95136050
Si       1.35836076       2.72880409       0.95136050
Si       1.12279614       0.51085718       0.24912007
Si      -0.11079479       5.76688609       0.24912007
Si       0.04890907       1.19534500       4.64835347
Si       0.96309228       5.08239828       4.64835347
Si       0.47975292       4.39868219       2.42632086
Si       0.53224843       1.87906109       2.42632086
Si      -1.14382106       4.65596039       5.70137014
Si       2.15582241       1.62178289       5.70137014
