14
Lattice="7.154809999999995 -8.031901471248235e-08 -2.6241995600413123e-07 -2.9363641671208383 6.524497805513364 -2.624199639645247e-07 -2.936364276985625 -2.727456104086121 5.9270614444168155" Properties=species:S:1:pos:R:3 unique_starting_index=10 config_type=initial n_minim_iter=1 pbc="T T T"
Si       2.32869203       3.33949300       3.07102350
Si      -0.84677342       0.76662844       2.85603740
Si       0.55959687       2.17032154       3.60741082
Si       3.03154466       5.19804876       2.31964982
Si       0.00800092      -2.53730389       5.81956815
Si      -1.03497934       2.76301686       0.10749306
Si       1.77709609      -1.36813243       5.28318083
Si      -0.69485159       4.85609425       0.64388012
Si       3.18147043       4.92065027      -0.00000040
Si      -1.89938888      -1.12360864       5.92706132
Si      -0.84477736       5.13349275       2.96353033
Si      -2.91872816       1.92579783       2.96353059
Si       3.16383432       0.26739634       2.96353046
Si       2.10922292       3.26224887      -0.00000026
14
Lattice="7.164358774854612 0.020121725641262873 -0.00041820596517804057 -2.921933874759502 6.5414634425832565 0.00041767814189116456 -2.9482999122523053 -2.7460346738776806 5.926552056292932" Properties=species:S:1:pos:R:3 unique_starting_index=10 config_type=initial n_minim_iter=2 pbc="T T T"
Si       2.34112300       3.35892575       3.07073544
Si      -0.84608998       0.76736099       2.85581607
Si       0.56630626       2.18055108       3.60725042
Si       3.05016288       5.22687420       2.31930082
Si       0.00042519      -2.54672801       5.81888315
Si      -1.02842069       2.77074969       0.10766867
Si       1.77524193      -1.36835334       5.28236816
Si      -0.68224865       4.87282165       0.64418339
Si       3.19978969       4.94898391      -0.00000040
Si      -1.90568294      -1.13346162       5.92655193
Si      -0.83187546       5.15071194       2.96348461
Si      -2.91712764       1.92553764       2.96348486
Si       3.16860459       0.27739178       2.96306679
Si       2.12124351       3.28084063      -0.00000026
14
Lattice="7.309663405712673 0.34169346542255236 -0.007698610320918609 -2.688325040393044 6.8059416699804105 0.007698035354934988 -3.136549713948443 -3.0398400058316417 5.9104768659398355" Properties=species:S:1:pos:R:3 unique_starting_index=10 config_type=initial n_minim_iter=3 pbc="T T T"
Si       2.53698111       3.66638504       3.06185930
Si      -0.83434751       0.77834198       2.84861697
Si       0.67280663       2.34209845       3.59966515
Si       3.34443400       5.68253664       2.31081082
Si      -0.12097020      -2.69457195       5.80000626
Si      -0.92275528       2.89161765       0.11047034
Si       1.74320427      -1.37028537       5.26220041
Si      -0.48019842       5.13505812       0.64827591
Si       3.48963346       5.39727342      -0.00000043
Si      -2.00498098      -1.28968890       5.91047672
Si      -0.62539788       5.42032134       2.95908717
Si      -2.88867152       1.91980852       2.95908745
Si       3.24148125       0.43720109       2.95138898
Si       2.31107937       3.57445200      -0.00000029
14
Lattice="7.229411757520448 0.473209424818823 -0.010230310508587434 -2.535459534200562 6.7867345963940835 0.010229726508316071 -3.1558460354208275 -3.106992749994756 5.7864398242411275" Properties=species:S:1:pos:R:3 unique_starting_index=10 config_type=initial n_minim_iter=4 pbc="T T T"
Si       2.57193160       3.72740586       2.99672854
Si      -0.81234253       0.76810393       2.78971067
Si       0.70652319       2.36592403       3.52443596
Si       3.40564075       5.76821717       2.26200296
Si      -0.17053060      -2.70633225       5.67781560
Si      -0.85982220       2.88675301       0.10862396
Si       1.69487780      -1.34485042       5.15010818
Si      -0.38385326       5.14658379       0.63633109
Si       3.54622622       5.48480313      -0.00000044
Si      -2.00771854      -1.33123088       5.78643968
Si      -0.52443872       5.42999783       2.89833449
Si      -2.82029223       1.87909507       2.89833477
Si       3.21007991       0.49779892       2.88810461
Si       2.34716712       3.63026744      -0.00000029
14
Lattice="7.0053891588349435 0.80667199600731 -0.0253492251338797 -2.13943395869759 6.719301998193607 0.025348619733777177 -3.2035486862954663 -3.264770062976562 5.460168251986254" Properties=species:S:1:pos:R:3 unique_starting_index=10 config_type=initial n_minim_iter=5 pbc="T T T"
Si       2.64900602       3.87703010       2.82399893
Si      -0.75523394       0.74201751       2.63616869
Si       0.78748019       2.42421983       3.32404105
Si       3.54987616       5.97421968       2.13612627
Si      -0.30216807      -2.72636869       5.35357838
Si      -0.69976858       2.86674197       0.10658959
Si       1.55935776      -1.27355842       4.85353626
Si      -0.13892348       5.16051379       0.60663141
Si       3.68083886       5.69300301      -0.00000046
Si      -2.01617451      -1.42830696       5.46016810
Si      -0.26988619       5.44173046       2.74275814
Si      -2.64237670       1.77229638       2.74275843
Si       3.11778283       0.65302260       2.71740936
Si       2.43260381       3.76240887      -0.00000030
14
Lattice="7.137399117546561 0.8066059374301724 -0.05961694794014488 -2.1936716371060654 6.83965526348704 0.05961633286396806 -3.28608840828169 -3.2966892214506496 5.566982316659566" Properties=species:S:1:pos:R:3 unique_starting_index=10 config_type=initial n_minim_iter=6 pbc="T T T"
Si       2.67335571       3.95346101       2.87440433
Si      -0.77806925       0.76367048       2.69257734
Si       0.78416736       2.47764514       3.38225413
Si       3.59518706       6.08149271       2.18472723
Si      -0.32599315      -2.76049596       5.44626021
Si      -0.72587890       2.91937785       0.12072183
Si       1.56319520      -1.28468009       4.93841041
Si      -0.15540773       5.24781683       0.62857133
Si       3.74051190       5.78529686      -0.00000047
Si      -2.07981103      -1.43098930       5.56698217
Si      -0.30073257       5.54401268       2.81329902
Si      -2.71022553       1.81734841       2.81329932
Si       3.16160887       0.66655715       2.75368253
Si       2.47184209       3.82309712      -0.00000031
14
Lattice="7.080701823737403 0.8040922367794081 -0.07084467153090158 -2.1726950815872588 6.786921158440937 0.07084406089893708 -3.271162435823951 -3.267168074429375 5.51327395970202" Properties=species:S:1:pos:R:3 unique_starting_index=10 config_type=initial n_minim_iter=7 pbc="T T T"
Si       2.64753671       3.93056171       2.84444911
Si      -0.77342900       0.76024922       2.66882421
Si       0.77521174       2.46420045       3.34674151
Si       3.56580746       6.04208163       2.16653150
Si      -0.33292440      -2.73600765       5.39003903
Si      -0.72149807       2.89738068       0.12323465
Si       1.53940057      -1.26964639       4.88774663
Si      -0.15272779       5.20656166       0.62552675
Si       3.71360555       5.74368190      -0.00000046
Si      -2.07314799      -1.41424809       5.51327381
Si      -0.30052588       5.50496140       2.79205871
Si      -2.69294152       1.80470992       2.79205901
Si       3.13168113       0.66607585       2.72121449
Si       2.45409362       3.79564628      -0.00000031
14
Lattice="7.075140889592937 0.8131268013794216 -0.08727308223171992 -2.162174196591448 6.78555794706643 0.08727247098266054 -3.2859335690316165 -3.26305684371072 5.504660667806679" Properties=species:S:1:pos:R:3 unique_starting_index=10 config_type=initial n_minim_iter=8 pbc="T T T"
Si       2.64127230       3.94188816       2.83737501
Si      -0.77530056       0.76329633       2.66728501
Si       0.77133916       2.47219470       3.33823497
Si       3.56487558       6.05361367       2.16642475
Si      -0.34787719      -2.73089645       5.37597899
Si      -0.72051165       2.89762542       0.12868140
Si       1.52205595      -1.26120300       4.87511903
Si      -0.14772110       5.20599283       0.62954106
Si       3.71766121       5.74995462      -0.00000046
Si      -2.08648310      -1.40791584       5.50466052
Si      -0.30050672       5.50965188       2.79596627
Si      -2.69526268       1.80578074       2.79596657
Si       3.12257802       0.67429273       2.70869364
Si       2.45675066       3.79975582      -0.00000031
14
Lattice="7.073432745676906 0.8179944358064827 -0.09625432133035704 -2.157034352560121 6.7859979829243064 0.09625370965434146 -3.2945281904684487 -3.2612631760001958 5.500444717745881" Properties=species:S:1:pos:R:3 unique_starting_index=10 config_type=initial n_minim_iter=9 pbc="T T T"
Si       2.63830320       3.94856445       2.83380143
Si      -0.77658853       0.76512244       2.66664265
Si       0.76923857       2.47688811       3.33400584
Si       3.56485469       6.06072567       2.16643793
Si      -0.35608031      -2.72846767       5.36873803
Si      -0.72009315       2.89824308       0.13170641
Si       1.51298432      -1.25679133       4.86853362
Si      -0.14513797       5.20663227       0.63191052
Si       3.72040593       5.75419978      -0.00000046
Si      -2.09411227      -1.40462893       5.50044457
Si      -0.30068921       5.51315816       2.79834891
Si      -2.69709760       1.80673128       2.79834921
Si       3.11818304       0.67879328       2.70209505
Si       2.45856803       3.80256667      -0.00000031
14
Lattice="7.061990825610944 0.854809471232887 -0.16664606896250983 -2.1187667676411475 6.790673106728142 0.16664545394896707 -3.3621791789014193 -3.246940313878822 5.467860465870444" Properties=species:S:1:pos:R:3 unique_starting_index=10 config_type=initial n_minim_iter=10 pbc="T T T"
Si       2.61534110       4.00046396       2.80632178
Si      -0.78748841       0.77980586       2.66153804
Si       0.75244371       2.51354313       3.30160922
Si       3.56434790       6.11626678       2.16625029
Si      -0.42019641      -2.70935775       5.31214542
Si      -0.71717855       2.90343119       0.15571477
Si       1.44270097      -1.22243692       4.81685799
Si      -0.12579080       5.21245285       0.65100190
Si       3.74178670       5.78726853      -0.00000047
Si      -2.15417046      -1.37856261       5.46786032
Si      -0.30322960       5.54145110       2.81725266
Si      -2.71267568       1.81485935       2.81725296
Si       3.08452468       0.71346909       2.65060704
Si       2.47279919       3.82457743      -0.00000031
14
Lattice="7.060577828730281 0.8623346589400993 -0.18712468452785502 -2.1113246196340065 6.792472960604482 0.18712406876419363 -3.3814324588547016 -3.2411036217659412 5.459948006504473" Properties=species:S:1:pos:R:3 unique_starting_index=10 config_type=initial n_minim_iter=11 pbc="T T T"
Si       2.60816198       4.01348187       2.79935572
Si      -0.79192426       0.78443850       2.66059164
Si       0.74630177       2.52326586       3.29392836
Si       3.56251064       6.12981789       2.16601869
Si      -0.43808185      -2.70286425       5.29700348
Si      -0.71714097       2.90494809       0.16294425
Si       1.42377837      -1.21264824       4.80243085
Si      -0.12232267       5.21437631       0.65751658
Si       3.74651785       5.79458601      -0.00000047
Si      -2.17159472      -1.36989705       5.45994786
Si      -0.30632988       5.54960819       2.82353573
Si      -2.71890297       1.81818001       2.82353603
Si       3.07543339       0.72207076       2.63641151
Si       2.47607920       3.82965049      -0.00000031
14
Lattice="7.0522869650821205 0.894808438985279 -0.2765887764456781 -2.0783090470346 6.798239877180598 0.2765881576058801 -3.464521316376789 -3.2144954067097955 5.4325350332835525" Properties=species:S:1:pos:R:3 unique_starting_index=10 config_type=initial n_minim_iter=12 pbc="T T T"
Si       2.57648995       4.06822608       2.77308940
Si      -0.81209334       0.80463213       2.65944499
Si       0.71884402       2.56449093       3.26567476
Si       3.55300856       6.18654693       2.16685931
Si      -0.51664501      -2.67277873       5.23741830
Si      -0.71582736       2.91050219       0.19511646
Si       1.34100093      -1.16904357       4.74483294
Si      -0.10695135       5.22163571       0.68770151
Si       3.76584176       5.82447352      -0.00000047
Si      -2.24708297      -1.33153328       5.43253488
Si      -0.31978455       5.58370912       2.85456129
Si      -2.74535905       1.83217220       2.85456159
Si       3.03476996       0.75938593       2.57797297
Si       2.48959630       3.85055683      -0.00000031
14
Lattice="7.056256086317845 0.9114444476502325 -0.38481019706102293 -2.064767544983049 6.808686833742816 0.3848095760426332 -3.5621428858704784 -3.1705799787467797 5.408227840768213" Properties=species:S:1:pos:R:3 unique_starting_index=10 config_type=initial n_minim_iter=13 pbc="T T T"
Si       2.53361649       4.12133634       2.74724204
Si      -0.84368801       0.83124777       2.66098515
Si       0.67799420       2.60918136       3.24027975
Si       3.53041593       6.23863536       2.16794712
Si      -0.60508637      -2.63138562       5.17269416
Si      -0.72189507       2.91783849       0.23553341
Si       1.25053592      -1.11923063       4.67965644
Si      -0.10451047       5.23058218       0.72857081
Si       3.77940750       5.84545508      -0.00000047
Si      -2.33853689      -1.27807860       5.40822769
Si      -0.35350203       5.62376246       2.89651840
Si      -2.78918908       1.85658488       2.89651871
Si       2.99099892       0.79438698       2.51170867
Si       2.49967408       3.86614373      -0.00000031
14
Lattice="7.024735161515022 0.9417590773912499 -0.5218505615011543 -2.024187191355131 6.7923840522280345 0.521849939355631 -3.6742872433312397 -3.108007133625522 5.368345189456722" Properties=species:S:1:pos:R:3 unique_starting_index=10 config_type=initial n_minim_iter=14 pbc="T T T"
Si       2.47418609       4.17447726       2.71140247
Si      -0.88298249       0.86143506       2.65694207
Si       0.62407714       2.65655859       3.20702509
Si       3.49266226       6.28549671       2.16131913
Si      -0.72283840      -2.56500106       5.08018957
Si      -0.71611774       2.91428919       0.28815534
Si       1.12727055      -1.04708239       4.58456694
Si      -0.09121451       5.22437067       0.78377766
Si       3.78636553       5.85621679      -0.00000047
Si      -2.44662752      -1.20923602       5.36834504
Si      -0.38491779       5.65365059       2.94509726
Si      -2.82675995       1.87695314       2.94509756
Si       2.92001889       0.84214941       2.42324716
Si       2.50561605       3.87533392      -0.00000031
14
Lattice="7.077972944692261 0.974788477634302 -0.7353926544985291 -2.015916552776594 6.8544872135312245 0.7353920247004071 -3.8856260286239257 -3.0388155737260676 5.40729890325774" Properties=species:S:1:pos:R:3 unique_starting_index=10 config_type=initial n_minim_iter=15 pbc="T T T"
Si       2.40993911       4.29068194       2.71078661
Si      -0.96198656       0.91973046       2.69651163
Si       0.54099904       2.75490148       3.22229741
Si       3.46660674       6.41442194       2.18500051
Si      -0.90284939      -2.48955428       5.03246494
Si      -0.72327063       2.94542430       0.37483368
Si       0.96609068      -0.95377382       4.52095414
Si      -0.08980754       5.28000850       0.88634417
Si       3.83308954       5.92848290      -0.00000048
Si      -2.64150366      -1.11458236       5.40729875
Si      -0.45629034       5.76594754       3.07134515
Si      -2.92937956       1.94092153       3.07134546
Si       2.85497503       0.91492338       2.33595297
Si       2.53774073       3.92501985      -0.00000032
14
Lattice="7.06885014861036 0.9741237072076212 -0.7434177707923109 -2.0127787249585807 6.845895278201787 0.7434171417388115 -3.8882766054546267 -3.0305386727401356 5.40125425744695" Properties=species:S:1:pos:R:3 unique_starting_index=10 config_type=initial n_minim_iter=16 pbc="T T T"
Si       2.40309690       4.28826111       2.70694956
Si      -0.96403663       0.92077440       2.69430404
Si       0.53632949       2.75448018       3.21849977
Si       3.45950341       6.40901104       2.18275350
Si      -0.90903316      -2.48199301       5.02322247
Si      -0.72247318       2.94190866       0.37803150
Si       0.95773425      -0.94821208       4.51167226
Si      -0.08994180       5.27369100       0.88958141
Si       3.82852690       5.92142606      -0.00000048
Si      -2.64553142      -1.10843549       5.40125410
Si      -0.45896529       5.76127599       3.07233539
Si      -2.92925499       1.94057988       3.07233570
Si       2.84756511       0.91637353       2.32891809
Si       2.53477523       3.92043324      -0.00000032
14
Lattice="7.0294365829617655 0.972860869614576 -0.7867439658900008 -1.9977548150888056 6.809435632218796 0.7867433398709516 -3.9075112327951826 -2.991356565493694 5.374604142255693" Properties=species:S:1:pos:R:3 unique_starting_index=10 config_type=initial n_minim_iter=17 pbc="T T T"
Si       2.37041750       4.28156873       2.68935184
Si      -0.97596229       0.92740947       2.68525165
Si       0.51264383       2.75606073       3.20160440
Si       3.42704114       6.38952030       2.17299877
Si      -0.94320474      -2.44545076       4.97918192
Si      -0.71875029       2.92720420       0.39542194
Si       0.91456894      -0.91994276       4.46692936
Si      -0.09007196       5.24738987       0.90767419
Si       3.80992644       5.89265749      -0.00000047
Si      -2.67031678      -1.07783847       5.37460399
Si      -0.47295726       5.74425268       3.08067343
Si      -2.93190704       1.94109557       3.08067374
Si       2.81199372       0.92567074       2.29392993
Si       2.52273028       3.90180380      -0.00000031
14
Lattice="7.023241483213755 0.9816951932567556 -0.8389840382616428 -1.9871562637109867 6.807411947205125 0.8389834116947346 -3.951612233083821 -2.9676717046882306 5.372245004353999" Properties=species:S:1:pos:R:3 unique_starting_index=10 config_type=initial n_minim_iter=18 pbc="T T T"
Si       2.34917857       4.30071946       2.68359205
Si      -0.99388313       0.93958601       2.68865229
Si       0.49061987       2.77436961       3.19920192
Si       3.41307825       6.40744611       2.17304211
Si      -0.98791226      -2.41954906       4.95528297
Si      -0.71647982       2.92756091       0.41696176
Si       0.87064643      -0.89319921       4.43967310
Si      -0.08735598       5.24880794       0.93257132
Si       3.81323993       5.89778232      -0.00000047
Si      -2.71309600      -1.05210927       5.37224485
Si      -0.48751765       5.75847173       3.10561390
Si      -2.94887917       1.95158449       3.10561421
Si       2.78775032       0.94332951       2.26663033
Si       2.52512822       3.90551260      -0.00000031
14
Lattice="7.023079055078052 0.9999616761990957 -0.9724794622942387 -1.97043231902439 6.81476048489903 0.9724788336668228 -4.069096786241815 -2.909872967898011 5.382126151431555" Properties=species:S:1:pos:R:3 unique_starting_index=10 config_type=initial n_minim_iter=19 pbc="T T T"
Si       2.29781205       4.35377932       2.67736868
Si      -1.04190117       0.97231941       2.70475681
Si       0.43442009       2.82433431       3.20266945
Si       3.38078284       6.46011680       2.17945572
Si      -1.10043265      -2.35756630       4.90958034
Si      -0.71470170       2.93380490       0.47254553
Si       0.76295931      -0.82812129       4.38427957
Si      -0.08473897       5.26072967       0.99784599
Si       3.82570922       5.91706807      -0.00000048
Si      -2.82599223      -0.98721396       5.38212600
Si      -0.52966535       5.80377840       3.17730218
Si      -2.99970742       1.98346531       3.17730249
Si       2.73257561       0.98700554       2.20482319
Si       2.53390057       3.91908044      -0.00000031
14
Lattice="7.177335342945231 1.0713652245154395 -2.191392635326011 -1.9686264972854748 6.984731821896558 2.191391987282056 -5.169374200627645 -2.3696220159228223 5.680337117475066" Properties=species:S:1:pos:R:3 unique_starting_index=10 config_type=initial n_minim_iter=20 pbc="T T T"
Si       1.82736899       4.84272740       2.74181074
Si      -1.50323320       1.28423793       2.93852570
Si      -0.08319783       3.29019925       3.35330672
Si       3.07382406       6.96091784       2.32702938
Si      -2.08623098      -1.81940502       4.68299813
Si      -0.76358994       3.03734125       0.99733870
Si      -0.17566417      -0.26687686       4.07150215
Si      -0.13193835       5.41675838       1.60883436
Si       3.94231614       6.09741923      -0.00000049
Si      -3.88399027      -0.38157123       5.68033696
Si      -1.00043043       6.28025699       3.93586423
Si      -3.55220707       2.33352839       3.93586455
Si       2.29360671       1.34548364       1.74447208
Si       2.61690550       4.04746076      -0.00000032
14
Lattice="7.583795167663791 1.4388853632408225 -1.7221150052730438 -1.8002963711874571 7.50621580344164 1.7221142857163254 -5.087537188739595 -3.0528527778605583 6.187781221518745" Properties=species:S:1:pos:R:3 unique_starting_index=10 config_type=initial n_minim_iter=21 pbc="T T T"
Si       2.33433948       5.17737698       3.04303575
Si      -1.32429083       1.20065700       3.14474472
Si       0.28891141       3.41168559       3.65285577
Si       3.68851965       7.55587747       2.53492433
Si      -1.83612358      -2.32838758       5.37757804
Si      -0.67375125       3.26229981       0.81020286
Si       0.20930449      -0.56269618       4.76775802
Si       0.09693707       5.85218051       1.42002253
Si       4.38136362       6.77647602      -0.00000054
Si      -3.66557095      -0.85355572       6.18778105
Si      -0.59590691       6.63158197       3.95494740
Si      -3.42000832       2.26365976       3.95494775
Si       2.67444322       1.39903821       2.23283293
Si       2.91130987       4.50280396      -0.00000036
14
Lattice="6.98247982820947 1.2269679505597835 -1.5836753823669643 -1.7467623153229574 6.870902297373036 1.5836747309627084 -4.645286959420771 -2.7380910728361054 5.669104313640987" Properties=species:S:1:pos:R:3 unique_starting_index=10 config_type=initial n_minim_iter=22 pbc="T T T"
Si       2.10280857       4.69321522       2.78767893
Si      -1.22852824       1.10558281       2.88142470
Si       0.23646009       3.10290760       3.34668889
Si       3.32293907       6.84885395       2.32241440
Si      -1.65271096      -2.11346515       4.92413937
Si      -0.65856702       2.98529037       0.74496466
Si       0.21363752      -0.52315754       4.36512940
Si       0.02568319       5.33988948       1.30397431
Si       3.96471567       6.13206367      -0.00000049
Si      -3.35555518      -0.74331564       5.66910415
Si      -0.61609342       6.05667977       3.62638920
Si      -3.17682704       2.09609776       3.62638952
Si       2.46008023       1.24192363       2.04271431
Si       2.63530434       4.07591751      -0.00000033
14
Lattice="6.937554335519445 1.1979589747090633 -1.55149962167319 -1.7547780995977054 6.8180291643121445 1.551498976855646 -4.589136478874569 -2.7163396689788426 5.62032211599259" Properties=species:S:1:pos:R:3 unique_starting_index=10 config_type=initial n_minim_iter=23 pbc="T T T"
Si       2.08713321       4.64269839       2.76709683
Si      -1.21201100       1.09230749       2.85322461
Si       0.23933772       3.06747047       3.31753891
Si       3.29265202       6.77680383       2.30278220
Si      -1.61497858      -2.10623729       4.88763605
Si      -0.66425222       2.96253431       0.73268578
Si       0.23281690      -0.53100937       4.33719397
Si       0.01386098       5.29402610       1.28312755
Si       3.92453825       6.06992288      -0.00000049
Si      -3.31146475      -0.74021703       5.62032196
Si      -0.61802524       6.00090705       3.58591023
Si      -3.15393496       2.07871915       3.58591054
Si       2.45265601       1.21813150       2.03441109
Si       2.60863510       4.03466927      -0.00000032
14
Lattice="6.949524597125354 1.1970587828228465 -1.5358731965825174 -1.76051163474275 6.828575446066204 1.5358725509890263 -4.580760999401101 -2.7285941144994235 5.613911358788624" Properties=species:S:1:pos:R:3 unique_starting_index=10 config_type=initial n_minim_iter=24 pbc="T T T"
Si       2.09588318       4.64475157       2.76671078
Si      -1.20535425       1.08887480       2.84719990
Si       0.24794123       3.06537003       3.31349381
Si       3.30181792       6.78117901       2.30041654
Si      -1.60050266      -2.11988767       4.88621918
Si      -0.66802883       2.96752443       0.72769189
Si       0.24743930      -0.54050613       4.33943615
Si       0.01381197       5.30085445       1.27447461
Si       3.92945627       6.07752939      -0.00000049
Si      -3.30103754      -0.74929815       5.61391120
Si      -0.61382638       6.00450408       3.57489164
Si      -3.15310653       2.07710327       3.57489195
Si       2.46429394       1.21382012       2.03901892
Si       2.61184758       4.03963789      -0.00000032
14
Lattice="6.952431253099637 1.1910921230867695 -1.5148170783508592 -1.767145559310724 6.828777291834266 1.5148164332210963 -4.562236439943638 -2.7364839113055535 5.59712841094298" Properties=species:S:1:pos:R:3 unique_starting_index=10 config_type=initial n_minim_iter=25 pbc="T T T"
Si       2.10139913       4.63751078       2.76176147
Si      -1.19569636       1.08304338       2.83536626
Si       0.25690915       3.05671586       3.30321279
Si       3.30504297       6.77215057       2.29391461
Si      -1.57957390      -2.13178852       4.87652212
Si      -0.67267321       2.96807068       0.72060600
Si       0.26491609      -0.55099360       4.33507080
Si       0.01187315       5.29883290       1.26205701
Si       3.92677871       6.07338811      -0.00000049
Si      -3.28272657      -0.75751830       5.59712825
Si      -0.60986259       5.99759536       3.55597210
Si      -3.14787945       2.07214844       3.55597242
Si       2.47399494       1.20532264       2.04115551
Si       2.61006674       4.03688353      -0.00000032
14
Lattice="6.973130815720444 1.1579887673715887 -1.3495940237883013 -1.8058278320705028 6.834067524887057 1.3495933808958638 -4.4212412704866795 -2.807925071064548 5.4611317750856525" Properties=species:S:1:pos:R:3 unique_starting_index=10 config_type=initial n_minim_iter=26 pbc="T T T"
Si       2.15062303       4.59026130       2.72014832
Si      -1.11798986       1.03709828       2.74098278
Si       0.33173075       2.99265423       3.21958946
Si       3.33893030       6.71483524       2.24154131
Si      -1.42044229      -2.22911229       4.79675185
Si      -0.70371894       2.97398703       0.66437964
Si       0.39844999      -0.63150523       4.29731071
Si       0.00666388       5.28830636       1.16382047
Si       3.91405962       6.05371601      -0.00000049
Si      -3.14062874      -0.82725401       5.46113162
Si      -0.56846544       5.94942559       3.40536226
Si      -3.10232134       2.03041425       3.40536258
Si       2.54950657       1.14479783       2.05576872
Si       2.60191544       4.02427625      -0.00000032
