8
Lattice="4.1427 -2.53667214741387e-16 1.7916300111266933e-62 2.53667214741387e-16 4.1427 1.6817935621468474e-47 2.418233029077273e-31 3.9492742409663605e-15 9.410379999999996" Properties=species:S:1:pos:R:3 unique_starting_index=34 config_type=initial n_minim_iter=1 pbc="T T T"
Si       0.68412589       1.78258972       5.74552539
Si       0.68412589       2.36011028       3.66485461
Si       0.68412589       3.68471664       8.75444452
Si       0.68412589       0.45798336       0.65593548
Si       3.45857411       0.28876028       8.37004461
Si       3.45857411       3.85393972       1.04033539
Si       3.45857411       2.52933336       5.36112548
Si       3.45857411       1.61336664       4.04925452
8
Lattice="4.165878299650076 -2.5508647626519416e-16 1.3000027124613842e-33 2.543807367221791e-16 4.154352698252082 0.0028401029413216107 3.9503776394767395e-19 0.006451456276580509 9.441551237401844" Properties=species:S:1:pos:R:3 unique_starting_index=34 config_type=initial n_minim_iter=2 pbc="T T T"
Si       0.68888781       1.79107487       5.76629335
Si       0.68888781       2.36972929       3.67809799
Si       0.68893356       3.70006277       8.78524974
Si       0.68893356       0.46074138       0.65914160
Si       3.47699049       0.29577867       8.39745356
Si       3.47699049       3.86502549       1.04693778
Si       3.47694474       2.54114346       5.38133727
Si       3.47694474       1.61966069       4.06305407
8
Lattice="7.319417887390872 -4.48183735133038e-16 -6.3482164908888856e-21 3.378341419985397e-16 5.517201500590114 0.4058630661763763 5.643539322866807e-17 0.9219411689682777 13.212108758870043" Properties=species:S:1:pos:R:3 unique_starting_index=34 config_type=initial n_minim_iter=3 pbc="T T T"
Si       1.38073204       2.87665835       8.31047463
Si       1.38073204       3.56248431       5.30749719
Si       1.38878898       5.61601943      12.53835842
Si       1.38878898       0.82312324       1.07961340
Si       5.93868585       1.26485415      11.71062004
Si       5.93868585       5.17428852       1.90735179
Si       5.93062891       4.04269457       7.88859931
Si       5.93062891       2.39644809       5.72937251
8
Lattice="6.338019922114849 -3.5523343464517527e-16 -3.5168109854445365e-17 3.4672400289711003e-16 5.193724853154164 0.3170066346259337 -3.4776429090058927e-17 0.7200987023803804 11.487296369548307" Properties=species:S:1:pos:R:3 unique_starting_index=34 config_type=initial n_minim_iter=4 pbc="T T T"
Si       1.16034903       2.62403490       7.18815609
Si       1.16034903       3.28978866       4.61614692
Si       1.16800229       5.17481293      10.89594938
Si       1.16800229       0.73901062       0.90835362
Si       5.17767089       1.05297558      10.20129178
Si       5.17767089       4.86084798       1.60301122
Si       5.17001763       3.69592240       6.81050512
Si       5.17001763       2.21790115       4.99379788
8
Lattice="5.250390603232013 -2.6385913586713333e-16 -2.3822280248906878e-17 3.4710360598625787e-16 4.919932590499549 0.4311434703514382 4.244591468864462e-18 0.9793670530151232 9.962876168080049" Properties=species:S:1:pos:R:3 unique_starting_index=34 config_type=initial n_minim_iter=5 pbc="T T T"
Si       0.92913273       2.67939845       6.27783155
Si       0.92913273       3.21990119       4.11618809
Si       0.93779043       5.18883167       9.59064087
Si       0.93779043       0.71046797       0.80337877
Si       4.32125787       1.24961843       8.88205444
Si       4.32125787       4.64968122       1.51196520
Si       4.31260017       3.66011780       6.00038859
Si       4.31260017       2.23918185       4.39363105
8
Lattice="5.225619198323293 -2.7406518041221864e-16 -2.3105193338363037e-17 3.4861982344171164e-16 5.169977415969896 0.621028940017658 2.5621428474937184e-17 1.4107027582406066 9.854013284573501" Properties=species:S:1:pos:R:3 unique_starting_index=34 config_type=initial n_minim_iter=6 pbc="T T T"
Si       0.93725328       3.04428411       6.29606038
Si       0.93725328       3.53639606       4.17898184
Si       0.95068857       5.79130826       9.64765378
Si       0.95068857       0.78937192       0.82738845
Si       4.28836592       1.65675874       8.79547401
Si       4.28836592       4.92392144       1.67956821
Si       4.27493063       4.07971201       6.06490956
Si       4.27493063       2.50096817       4.41013267
8
Lattice="5.074217346137244 -3.101180747381535e-16 -2.8659899010359443e-17 3.1517145219561505e-16 5.3701888315179085 0.788062657314256 3.3136267188283365e-17 1.7901294009068867 9.553407895427718" Properties=species:S:1:pos:R:3 unique_starting_index=34 config_type=initial n_minim_iter=7 pbc="T T T"
Si       0.92339177       3.35111053       6.18980571
Si       0.92339177       3.80920771       4.15166485
Si       0.94363277       6.31076580       9.51612957
Si       0.94363277       0.84955243       0.82534099
Si       4.15082558       2.01917799       8.53433746
Si       4.15082558       5.14114024       1.80713309
Si       4.13058458       4.42971155       5.99607626
Si       4.13058458       2.73060668       4.34539429
8
Lattice="4.918367625516669 -3.823400881589239e-16 -4.3002556472671815e-17 2.333135522684964e-16 5.337168688735617 0.8514046410364923 1.1519413955928131e-17 1.9340143399031968 9.345914701824816" Properties=species:S:1:pos:R:3 unique_starting_index=34 config_type=initial n_minim_iter=8 pbc="T T T"
Si       0.90296738       3.41766681       6.09666309
Si       0.90296738       3.85351622       4.10065626
Si       0.92761964       6.42289610       9.38681043
Si       0.92761964       0.84828693       0.81050891
Si       4.01540025       2.15193904       8.34791129
Si       4.01540025       5.11924399       1.84940806
Si       3.99074798       4.48387844       5.90916858
Si       3.99074798       2.78730459       4.28815076
8
Lattice="4.883508890068504 -4.540566979689102e-16 -5.505276858254977e-17 1.6135741970448816e-16 5.3451786911245645 0.922395900278865 -2.720250652080702e-18 2.095275045759098 9.300038157440598" Properties=species:S:1:pos:R:3 unique_starting_index=34 config_type=initial n_minim_iter=9 pbc="T T T"
Si       0.90296686       3.51484038       6.10462634
Si       0.90296686       3.92561336       4.11780772
Si       0.93029823       6.58213263       9.40915100
Si       0.93029823       0.85832111       0.81328305
Si       3.98054203       2.30066153       8.30662885
Si       3.98054203       5.13979220       1.91580521
Si       3.95321066       4.57854798       5.92450008
Si       3.95321066       2.86190576       4.29793398
8
Lattice="4.838233486098089 -5.115401678319257e-16 -6.962998573743973e-17 1.0093375739572929e-16 5.322153647475301 1.0535161861924593 -8.220718839081912e-18 2.393122274898452 9.323070660130522" Properties=species:S:1:pos:R:3 unique_starting_index=34 config_type=initial n_minim_iter=10 pbc="T T T"
Si       0.90530404       3.67923645       6.18745523
Si       0.90530404       4.03603947       4.18913162
Si       0.93754202       6.84550094       9.55089114
Si       0.93754202       0.86977498       0.82569570
Si       3.93292945       2.57152378       8.32390886
Si       3.93292945       5.14375214       2.05267799
Si       3.90069147       4.72741294       6.01398913
Si       3.90069147       2.98786298       4.36259772
8
Lattice="4.801310307070364 -5.531035004306205e-16 -9.058112584102087e-17 5.1902450470068506e-17 5.256799742353979 1.237167836225392 -1.415770370703997e-17 2.810297502271152 9.500538507744743" Properties=species:S:1:pos:R:3 unique_starting_index=34 config_type=initial n_minim_iter=11 pbc="T T T"
Si       0.90934318       3.90136073       6.39103299
Si       0.90934318       4.16573651       4.34667336
Si       0.94713473       7.18597893       9.88264193
Si       0.94713473       0.88111831       0.85506441
Si       3.89196712       2.94248539       8.47835869
Si       3.89196712       5.12461185       2.25934765
Si       3.85417558       4.91466693       6.22391758
Si       3.85417558       3.15243031       4.51378876
8
Lattice="4.756844690045858 -5.720302502376979e-16 -1.1628362685410031e-16 2.0682154939086424e-17 5.161176492697291 1.4940409247515087 -1.0447120287586708e-17 3.393799415227533 9.605991487048232" Properties=species:S:1:pos:R:3 unique_starting_index=34 config_type=initial n_minim_iter=12 pbc="T T T"
Si       0.91474346       4.21720629       6.58111539
Si       0.91474346       4.33776961       4.51891702
Si       0.95827696       7.65863026      10.21417785
Si       0.95827696       0.89634565       0.88585457
Si       3.84210123       3.45408108       8.57489230
Si       3.84210123       5.10089483       2.52514011
Si       3.79856773       5.17383360       6.43587077
Si       3.79856773       3.38114230       4.66416164
8
Lattice="4.80981788755535 -5.756898837223424e-16 -1.4693028545638293e-16 6.8484246716848194e-18 5.099085211298773 1.8028246035728706 -2.7912285472824585e-18 4.0952192031694485 9.770774467234949" Properties=species:S:1:pos:R:3 unique_starting_index=34 config_type=initial n_minim_iter=13 pbc="T T T"
Si       0.94263427       4.62880594       6.83231588
Si       0.94263427       4.56549847       4.74128319
Si       0.99194476       8.27267924      10.64868185
Si       0.99194476       0.92162518       0.92491722
Si       3.86718362       4.06356547       8.72525812
Si       3.86718362       5.13073895       2.84834095
Si       3.81787312       5.51877738       6.71171676
Si       3.81787312       3.67552703       4.86188231
8
Lattice="4.7935101485622535 -5.709952402275273e-16 -1.7385584417625703e-16 1.0348360881716927e-18 5.0403827772080705 2.044841993804642 -4.86673785477479e-19 4.644975547748895 9.862150853273988" Properties=species:S:1:pos:R:3 unique_starting_index=34 config_type=initial n_minim_iter=14 pbc="T T T"
Si       0.97131005       4.97012277       7.02707071
Si       0.97131005       4.71523556       4.87992213
Si       1.02543583       8.76665867      10.97319813
Si       1.02543583       0.91869965       0.93379472
Si       3.82220010       4.51753194       8.78857656
Si       3.82220010       5.16782638       3.11841628
Si       3.76807432       5.76137882       6.88729114
Si       3.76807432       3.92397951       5.01970171
8
Lattice="4.848892124489001 -5.666035056826098e-16 -1.5726982747613197e-16 3.0527011302832723e-19 4.980863054100404 1.9225890583635792 -2.078472430817658e-19 4.367271012393716 10.113244615219635" Properties=species:S:1:pos:R:3 unique_starting_index=34 config_type=initial n_minim_iter=15 pbc="T T T"
Si       0.99753383       4.78087638       7.14218498
Si       0.99753383       4.56725769       4.89364870
Si       1.05257321       8.46402419      11.10952840
Si       1.05257321       0.88410988       0.92630527
Si       3.85135829       4.26046167       8.98897648
Si       3.85135829       5.08767240       3.04685720
Si       3.79631891       5.55817691       6.94422211
Si       3.79631891       3.78995716       5.09161157
8
Lattice="4.735806125407104 -5.625013032395365e-16 -1.5635172541148558e-16 1.9782163367769602e-19 4.943020858402924 1.9016326349777313 7.767086561788641e-20 4.319667298028273 9.876693910042425" Properties=species:S:1:pos:R:3 unique_starting_index=34 config_type=initial n_minim_iter=16 pbc="T T T"
Si       0.98112095       4.73689390       6.98667745
Si       0.98112095       4.52579425       4.79164910
Si       1.03481718       8.39006863      10.87406333
Si       1.03481718       0.87261953       0.90426322
Si       3.75468518       4.21411747       8.77917974
Si       3.75468518       5.04857068       2.99914681
Si       3.70098895       5.50396361       6.79342649
Si       3.70098895       3.75872455       4.98490006
8
Lattice="4.769760145012481 -5.647586803059971e-16 -1.5753597898345251e-16 -1.4416098553963266e-19 4.960571912472842 1.9133775375205182 -1.9849064501586036e-19 4.346346515927375 9.924419360877549" Properties=species:S:1:pos:R:3 unique_starting_index=34 config_type=initial n_minim_iter=17 pbc="T T T"
Si       0.99387793       4.76278671       7.02357142
Si       0.99387793       4.54413172       4.81422547
Si       1.04799550       8.43122851      10.93023532
Si       1.04799550       0.87568992       0.90756158
Si       3.77588222       4.23701902       8.81974639
Si       3.77588222       5.06989941       3.01805051
Si       3.72176464       5.52914914       6.82646003
Si       3.72176464       3.77776929       5.01133687
8
Lattice="4.7593784958436425 -5.648640203723658e-16 -1.5762958744183232e-16 2.830185295532536e-19 4.965339711040774 1.9158052395759648 3.032930397168809e-19 4.35186118000359 9.92129816883538" Properties=species:S:1:pos:R:3 unique_starting_index=34 config_type=initial n_minim_iter=18 pbc="T T T"
Si       0.99664735       4.77002658       7.02446236
Si       0.99664735       4.54717431       4.81264105
Si       1.05060723       8.44199310      10.93112454
Si       1.05060723       0.87520780       0.90597887
Si       3.76273115       4.24043505       8.81538751
Si       3.76273115       5.07676584       3.02171590
Si       3.70877127       5.53380824       6.82453057
Si       3.70877127       3.78339265       5.01257284
8
Lattice="4.731545431656282 -5.681057827685605e-16 -1.5897270674242623e-16 -4.57029810967561e-19 4.987373169421827 1.9247570463440826 -5.093410540877111e-19 4.372195721093838 9.933886513932189" Properties=species:S:1:pos:R:3 unique_starting_index=34 config_type=initial n_minim_iter=19 pbc="T T T"
Si       1.00777114       4.79820877       7.04246068
Si       1.00777114       4.56136012       4.81618288
Si       1.06118196       8.48507027      10.95626376
Si       1.06118196       0.87449862       0.90237980
Si       3.72377429       4.25377140       8.82074761
Si       3.72377429       5.10579749       3.03789595
Si       3.67036347       5.55428306       6.83170159
Si       3.67036347       3.80528583       5.02694198
8
Lattice="4.5307456776819555 -5.875715006984849e-16 -1.6062734618229874e-16 8.236017734971386e-19 5.163551805173861 1.949887049817889 9.226055179647546e-19 4.4292799613453235 10.03268931899829" Properties=species:S:1:pos:R:3 unique_starting_index=34 config_type=initial n_minim_iter=20 pbc="T T T"
Si       1.06474379       4.94468645       7.15204483
Si       1.06474379       4.64814532       4.83053154
Si       1.11216689       8.72199501      11.10193053
Si       1.11216689       0.87083675       0.88064584
Si       3.46600189       4.28100940       8.87193268
Si       3.46600189       5.31182237       3.11064369
Si       3.41857878       5.66725264       6.87193402
Si       3.41857878       3.92557913       5.11064235
8
Lattice="5.079228124590099 -6.211270876332426e-16 -1.6769137707141793e-16 -2.1305944081197407e-18 5.423875736349499 1.988592381733925 -2.1964530433595013e-18 4.5172013366213575 9.880979233195403" Properties=species:S:1:pos:R:3 unique_starting_index=34 config_type=initial n_minim_iter=21 pbc="T T T"
Si       1.22962026       5.10148749       7.07336262
Si       1.22962026       4.83958959       4.79620899
Si       1.27484590       9.04052974      10.99581193
Si       1.27484590       0.90054733       0.87375968
Si       3.84960787       4.38625239       8.74240242
Si       3.84960787       5.55482469       3.12716920
Si       3.80438223       5.87108587       6.80854549
Si       3.80438223       4.06999121       5.06102612
8
Lattice="4.64612521951919 -6.004672840272947e-16 -1.6447892987857679e-16 3.3873715298839206e-18 5.294843347018845 1.961830009632538 3.1969418832632364e-18 4.456409077665737 9.54750415673468" Properties=species:S:1:pos:R:3 unique_starting_index=34 config_type=initial n_minim_iter=22 pbc="T T T"
Si       1.12492521       5.01263940       6.85470344
Si       1.12492521       4.73861303       4.65463073
Si       1.16652822       8.87941675      10.66594453
Si       1.16652822       0.87183568       0.84338964
Si       3.52120001       4.31939589       8.44746780
Si       3.52120001       5.43185653       3.06186636
Si       3.47959699       5.74746189       6.59805672
Si       3.47959699       4.00379054       4.91127745
8
Lattice="4.6623155847905675 -6.153870959645688e-16 -1.6903131377365054e-16 -6.194214847522081e-18 5.341214505339263 1.9765800366994435 -6.191046306585417e-18 4.489914607805465 9.735485536532403" Properties=species:S:1:pos:R:3 unique_starting_index=34 config_type=initial n_minim_iter=23 pbc="T T T"
Si       1.12975613       5.05750648       6.98399341
Si       1.12975613       4.77362264       4.72807217
Si       1.17123642       8.95204885      10.85494105
Si       1.17123642       0.87908026       0.85712452
Si       3.53255946       4.34797269       8.60752492
Si       3.53255946       5.48315643       3.10454066
Si       3.49107917       5.79464482       6.71315731
Si       3.49107917       4.03648430       4.99890826
8
Lattice="4.632560343003675 -5.960519980968329e-16 -1.6020051799328126e-16 1.2929571021137417e-17 5.339423257153774 1.9748408627618803 1.2959242064875393e-17 4.485963974730768 9.75770766068403" Properties=species:S:1:pos:R:3 unique_starting_index=34 config_type=initial n_minim_iter=24 pbc="T T T"
Si       1.12341277       5.05608255       6.99946753
Si       1.12341277       4.76930468       4.73308099
Si       1.16437324       8.94869096      10.87525875
Si       1.16437324       0.87669627       0.85728978
Si       3.50914757       4.34257504       8.62451439
Si       3.50914757       5.48281219       3.10803413
Si       3.46818711       5.78938988       6.72356404
Si       3.46818711       4.03599735       5.00898448
