20
Lattice="5.498201011805039 -3.241228170403075e-16 -1.661176996307605e-14 2.2873160886197573e-16 3.8800488501311143 -1.6963302984525014e-11 6.276664196029829e-14 9.082559772196312e-11 20.774644429869312" Properties=species:S:1:pos:R:3 unique_starting_index=4 config_type=initial n_minim_iter=9 energy=-3254.083612998225 free_energy=-3254.083612998225 pbc="T T T"
Si       3.13078986       2.03874294      12.43259016
Si       3.13078986       1.84130591       8.34205427
Si       1.21710330       0.97945852      11.12879984
Si       1.21710330       2.90059033       9.64584459
Si       2.36741115       0.09871852      18.72937649
Si       2.36741115       3.78133033       2.04526794
Si       4.28109771       2.91948294      20.03316680
Si       4.28109771       0.96056591       0.74147763
Si       2.91603171       2.81126503       4.18495674
Si       2.91603171       1.06878382      16.58968769
Si       2.47447059       3.10409245      16.47004028
Si       2.47447059       0.77595640       4.30460415
Si       2.58216930       0.87124060       6.20236548
Si       2.58216930       3.00880825      14.57227895
Si       3.02373043       1.16406803      14.69192637
Si       3.02373043       2.71598082       6.08271806
Si       6.61727396       2.11401259      19.60175636
Si       6.61727396       1.76603626       1.17288807
Si      -1.11907295       3.70606069       9.21443414
Si      -1.11907295       0.17398816      11.56021029
