12
Lattice="6.4041242388485085 -0.6150843937828814 -1.8823330036116679 -2.067458728259608 6.677240112120035 0.34056940620159937 -3.133388477214099 -0.3691781383108677 6.615793399678664" Properties=species:S:1:pos:R:3 unique_starting_index=44 config_type=initial n_minim_iter=1 energy=-1954.0962630877586 free_energy=-1954.0962630877586 pbc="T T T"
Si      -2.99736324       2.80059251       5.21416333
Si      -0.87020413       3.26765033       2.17547082
Si      -2.24074225       4.44648735       3.71391431
Si       0.82944800       2.59015355       3.59427116
Si       1.65199892       4.84102901       4.12861696
Si       1.74870151       0.45361449       2.96858630
Si       2.39482999       4.11189008       0.19488669
Si       0.09310022       4.63907495       0.56296099
Si      -0.54282722       1.78137570       5.38939067
Si       4.18338534       0.77499377      -0.13357159
Si      -2.34931178       0.60908528       4.06437739
Si       1.58882958      -1.16592314       4.77243961
12
Lattice="6.402393005267535 -0.6166209932345659 -1.8811343356537047 -2.068177578314276 6.6782942714268625 0.34111168957196486 -3.1314111772422573 -0.3676906610994504 6.614638399377909" Properties=species:S:1:pos:R:3 unique_starting_index=44 config_type=initial n_minim_iter=2 stress="-0.00011625324886692464 -8.625785540905817e-05 8.234438992016565e-05 -8.625785540905817e-05 -7.288082563733227e-05 9.417883912819765e-05 8.234438992016565e-05 9.417883912819765e-05 -0.0001366677895393065" pbc="T T T"
Si      -2.99633703       2.80213621       5.21379351
Si      -0.87047066       3.26826676       2.17569664
Si      -2.24055099       4.44784624       3.71372271
Si       0.82929562       2.59083153       3.59447286
Si       1.65138020       4.84169935       4.12932428
Si       1.74884033       0.45375725       2.96862513
Si       2.39362091       4.11194031       0.19590524
Si       0.09237972       4.63946337       0.56356819
Si      -0.54205761       1.78240966       5.38899353
Si       4.18229219       0.77427586      -0.13263410
Si      -2.34813688       0.61017864       4.06356681
Si       1.58967915      -1.16563467       4.77211267
12
Lattice="6.402380884471592 -0.6168127276428301 -1.8815088102094866 -2.0683022228876564 6.680458097830099 0.3407151374368208 -3.1313267372485587 -0.3682059880858674 6.616352451445988" Properties=species:S:1:pos:R:3 unique_starting_index=44 config_type=initial n_minim_iter=3 stress="0.0001244956855112599 -8.502127501600805e-05 6.937202354065245e-05 -8.502127501600805e-05 0.0003791879365855586 1.1049138525632438e-05 6.937202354065245e-05 1.1049138525632438e-05 0.0002641500784755292" pbc="T T T"
Si      -2.99648490       2.80268493       5.21538252
Si      -0.87098247       3.26887317       2.17626870
Si      -2.24087694       4.44909026       3.71411944
Si       0.82911663       2.59160856       3.59515821
Si       1.65130033       4.84285236       4.13025671
Si       1.74907996       0.45372137       2.96920139
Si       2.39377719       4.11337216       0.19576492
Si       0.09245241       4.64072811       0.56334064
Si      -0.54199699       1.78263356       5.39013801
Si       4.18238846       0.77447986      -0.13255371
Si      -2.34805565       0.61018075       4.06426814
Si       1.59007273      -1.16628087       4.77338042
12
Lattice="6.401890711923129 -0.6157341142186974 -1.8820068531690717 -2.067330535418668 6.67894865676476 0.3402398160018365 -3.1317766250531007 -0.36918546533325264 6.616287942446131" Properties=species:S:1:pos:R:3 unique_starting_index=44 config_type=initial n_minim_iter=4 stress="-0.00014394361264330227 2.2919050457664233e-05 -2.9131896011447258e-05 2.2919050457664233e-05 0.00011880808970252574 -0.00014184688338709746 -2.9131896011447258e-05 -0.00014184688338709746 8.328296888077202e-05" pbc="T T T"
Si      -2.99654005       2.80124557       5.21547586
Si      -0.87113191       3.26769463       2.17609989
Si      -2.24076139       4.44763517       3.71348322
Si       0.82882952       2.59105684       3.59447833
Si       1.65127942       4.84167051       4.12945509
Si       1.74883420       0.45361641       2.96862879
Si       2.39423645       4.11302542       0.19511031
Si       0.09305697       4.63964780       0.56277953
Si      -0.54228247       1.78171739       5.38956969
Si       4.18217516       0.77487078      -0.13299266
Si      -2.34815310       0.60940489       4.06395528
Si       1.58952757      -1.16626221       4.77294949
12
Lattice="6.4042485953262585 -0.6154441900347845 -1.8822513087688248 -2.0675956520798446 6.676916971707544 0.3416072706769848 -3.1332672461117927 -0.3680242891583124 6.615678125960648" Properties=species:S:1:pos:R:3 unique_starting_index=44 config_type=initial n_minim_iter=5 stress="1.876439220341623e-05 3.111627490237818e-05 -5.450577465604644e-05 3.111627490237818e-05 -4.744467121629303e-06 1.3487726772389135e-05 -5.450577465604644e-05 1.3487726772389135e-05 -1.5205708427086785e-05" pbc="T T T"
Si      -2.99776945       2.80121993       5.21595541
Si      -0.87164040       3.26693253       2.17668686
Si      -2.24164978       4.44687201       3.71400378
Si       0.82901740       2.59122276       3.59447330
Si       1.65207619       4.84114282       4.12997679
Si       1.74950608       0.45425131       2.96818981
Si       2.39560561       4.11217855       0.19574902
Si       0.09345854       4.63819786       0.56365366
Si      -0.54258932       1.78223672       5.38930132
Si       4.18378990       0.77490824      -0.13300882
Si      -2.34913202       0.60982574       4.06356716
Si       1.58998020      -1.16476221       4.77208499
12
Lattice="6.4043006000545875 -0.615572819717661 -1.8814767051137498 -2.0678964725325706 6.676366897349119 0.34113681895717407 -3.1325385537294013 -0.3680849407791837 6.6155159805888175" Properties=species:S:1:pos:R:3 unique_starting_index=44 config_type=initial n_minim_iter=6 stress="3.5185919424117254e-05 -6.473846333165713e-06 5.192992159851547e-05 -6.473846333165713e-06 -7.211417016333422e-05 -3.46807675410273e-05 5.192992159851547e-05 -3.46807675410273e-05 -1.1209347744756646e-05" pbc="T T T"
Si      -2.99738723       2.80087934       5.21590462
Si      -0.87176583       3.26654476       2.17660733
Si      -2.24156654       4.44643668       3.71372921
Si       0.82930573       2.59092604       3.59453787
Si       1.65255025       4.84048057       4.13023044
Si       1.75009615       0.45413738       2.96836508
Si       2.39567225       4.11178089       0.19589360
Si       0.09340852       4.63752284       0.56362124
Si      -0.54199314       1.78194903       5.38929587
Si       4.18392817       0.77461395      -0.13255345
Si      -2.34872929       0.60970039       4.06332393
Si       1.59084270      -1.16477609       4.77242823
