6
Lattice="3.5816487904165477 0.7759764049699045 5.28999391304092e-15 0.8306949414671354 4.819626168034459 6.465313733069731e-15 -1.2785473710045496e-14 -1.1844330092510349e-14 10.449937747072713" Properties=species:S:1:pos:R:3 unique_starting_index=22 config_type=initial n_minim_iter=1 energy=-975.017384750582 free_energy=-975.017384750582 pbc="T T T"
Si       3.28524384       2.14805771       0.15163161
Si       1.12786297       3.45197217       0.15163161
Si       2.92753361       3.79912906       6.48697039
Si       1.48557320       1.80090081       6.48697039
Si       1.54339862       1.53399792       8.85776431
Si       2.86970819       4.06603196       8.85776431
6
Lattice="3.581282892749625 0.775897131994585 5.289456381510325e-15 0.8295639219774258 4.823962510117066 6.468844839114175e-15 -1.2772558156789081e-14 -1.1832497392715261e-14 10.439457407548407" Properties=species:S:1:pos:R:3 unique_starting_index=22 config_type=initial n_minim_iter=2 stress="6.991253279536565e-05 -1.901082030177617e-05 3.464803698137422e-17 -1.901082030177617e-05 0.00015354139233792768 1.982171435151282e-17 3.464803698137422e-17 1.982171435151282e-17 -0.0001467512742363091" pbc="T T T"
Si       3.28452421       2.14961075       0.15131123
Si       1.12708465       3.45468018       0.15131123
Si       2.92646873       3.80227563       6.48055215
Si       1.48514012       1.80201530       6.48055215
Si       1.54282137       1.53577784       8.84896148
Si       2.86878748       4.06851309       8.84896148
6
Lattice="3.58016769072037 0.7756555196779914 5.287818051572007e-15 0.8293789192752437 4.822121914173235 6.466532190128888e-15 -1.2776885018558378e-14 -1.1836461704848235e-14 10.44296841128451" Properties=species:S:1:pos:R:3 unique_starting_index=22 config_type=initial n_minim_iter=3 stress="-0.0002478143321349203 9.67381565685661e-07 1.0122338658363111e-16 9.67381565685661e-07 -0.0002520698569256732 4.061728308411106e-17 1.0122338658363111e-16 4.061728308411106e-17 -0.0001703627229657441" pbc="T T T"
Si       3.28342331       2.14930187       0.15112914
Si       1.12688517       3.45290517       0.15112914
Si       2.92554253       3.80116040       6.48248948
Si       1.48476594       1.80104663       6.48248948
Si       1.54228893       1.53553969       8.85241276
Si       2.86801955       4.06666734       8.85241276
6
Lattice="3.580558410125676 0.7757401703674427 5.288392028820748e-15 0.8294979360686107 4.822516612975389 6.46712514663949e-15 -1.2780846026468823e-14 -1.1840090686609032e-14 10.446182556123114" Properties=species:S:1:pos:R:3 unique_starting_index=22 config_type=initial n_minim_iter=4 stress="-6.907907935969627e-05 -2.096585025626757e-05 1.6922129944610807e-17 -2.096585025626757e-05 2.314998379661228e-05 3.724067321930879e-17 1.6922129944610807e-17 3.724067321930879e-17 0.000153939656010242" pbc="T T T"
Si       3.28373599       2.14974713       0.15109783
Si       1.12708233       3.45293961       0.15109783
Si       2.92583924       3.80167940       6.48436255
Si       1.48497908       1.80100734       6.48436255
Si       1.54243085       1.53582908       8.85533730
Si       2.86838747       4.06685766       8.85533730
6
Lattice="3.5825732473986833 0.7761766917226052 5.2913519510523325e-15 0.8306218892455087 4.822196989004712 6.468137984814268e-15 -1.277677701514865e-14 -1.1836362913299737e-14 10.4428807785902" Properties=species:S:1:pos:R:3 unique_starting_index=22 config_type=initial n_minim_iter=5 stress="-1.4809919207014704e-05 -1.798109753474565e-05 2.2413523112024576e-17 -1.798109753474565e-05 6.428917574404359e-05 7.079636890286552e-17 2.2413523112024576e-17 7.079636890286552e-17 -5.550987679636988e-05" pbc="T T T"
Si       3.28560856       2.15084255       0.15085774
Si       1.12834958       3.45196080       0.15085774
Si       2.92777104       3.80250146       6.48223811
Si       1.48618711       1.80030189       6.48223811
Si       1.54338352       1.53630228       8.85280558
Si       2.87057463       4.06650107       8.85280558
