14
Lattice="6.973130815720458 1.1579887673715805 -1.3495940237883053 -1.8058278320704897 6.834067524887049 1.34959338089586 -4.42124127048668 -2.80792507106452 5.461131775085658" Properties=species:S:1:pos:R:3 unique_starting_index=10 config_type=initial n_minim_iter=1 energy=-2276.2998073896674 free_energy=-2276.2998073896674 pbc="T T T"
Si       2.15062303       4.59026130       2.72014832
Si      -1.11798986       1.03709828       2.74098278
Si       0.33173075       2.99265423       3.21958946
Si       3.33893030       6.71483524       2.24154131
Si      -1.42044229      -2.22911229       4.79675185
Si      -0.70371894       2.97398703       0.66437964
Si       0.39844999      -0.63150523       4.29731071
Si       0.00666388       5.28830636       1.16382047
Si       3.91405962       6.05371601      -0.00000049
Si      -3.14062874      -0.82725401       5.46113162
Si      -0.56846544       5.94942559       3.40536226
Si      -3.10232134       2.03041425       3.40536258
Si       2.54950657       1.14479783       2.05576872
Si       2.60191544       4.02427625      -0.00000032
14
Lattice="6.996874296392173 1.1889694938171413 -1.350143904034898 -1.7873208166628136 6.868433913582744 1.350143255885837 -4.44163526914017 -2.8410714206361427 5.471784654722849" Properties=species:S:1:pos:R:3 unique_starting_index=10 config_type=initial n_minim_iter=2 stress="0.006965494145496321 0.001403473607115681 -0.00025163832774129666 0.001403473607115681 0.00822876673857307 0.00016269768476066552 -0.00025163832774129666 0.00016269768476066552 0.005361823441809126" pbc="T T T"
Si       2.16749219       4.63040275       2.72907198
Si      -1.10870189       1.03580921       2.74271200
Si       0.34795351       3.00767355       3.22283781
Si       3.36782508       6.76799358       2.24894584
Si      -1.42434283      -2.25447257       4.80353257
Si      -0.70338778       2.99222290       0.66825180
Si       0.39519585      -0.63174337       4.30976674
Si       0.02963873       5.31744193       1.16201731
Si       3.94534732       6.10210743      -0.00000049
Si      -3.14909604      -0.84195383       5.47178449
Si      -0.54788352       5.98332809       3.41096364
Si      -3.10462890       2.02891452       3.41096395
Si       2.56122949       1.15925612       2.06082022
Si       2.62355513       4.05774548      -0.00000033
14
Lattice="6.884323448431082 1.555563581703859 -1.2640824300173357 -1.4068309703167694 6.916250121504023 1.2640817485325173 -4.4260716331652254 -3.144957957379288 5.337219224376814" Properties=species:S:1:pos:R:3 unique_starting_index=10 config_type=initial n_minim_iter=3 stress="0.0040714137048580255 0.010252818858750241 -0.0021674095301861956 0.010252818858750241 0.013300019844554926 0.0014013468264193977 -0.0021674095301861956 0.0014013468264193977 -0.009641081609814283" pbc="T T T"
Si       2.24420969       4.93955551       2.73760407
Si      -0.84270590       0.92875924       2.59961443
Si       0.59338301       2.99736962       3.07941639
Si       3.54120623       7.09809666       2.25780177
Si      -1.33303606      -2.52535036       4.63618304
Si      -0.70437228       3.07484028       0.70103589
Si       0.31779062      -0.58316448       4.29437072
Si       0.38920807       5.37731656       1.04284787
Si       4.12850835       6.38539511      -0.00000051
Si      -3.02999837      -0.98570851       5.33721905
Si      -0.19809406       6.09001812       3.30065015
Si      -2.94315144       1.84435007       3.30065049
Si       2.57091767       1.28059728       2.03656823
Si       2.76632760       4.27856582      -0.00000034
14
Lattice="6.815778674344554 1.6484803523467388 -1.2254238537236481 -1.2939687612044715 6.891877315977021 1.2254231667250552 -4.365379219540106 -3.232797738882927 5.387774742987081" Properties=species:S:1:pos:R:3 unique_starting_index=10 config_type=initial n_minim_iter=4 stress="0.0022284187867751826 0.009015573360097605 -0.00019416705535844366 0.009015573360097605 0.010343374655391771 0.00012553809202313346 -0.00019416705535844366 0.00012553809202313346 -0.0032805971377984655" pbc="T T T"
Si       2.23546299       5.02470062       2.81004702
Si      -0.70077965       0.86788721       2.57772699
Si       0.69901450       2.94482625       3.06930822
Si       3.55494998       7.15356257       2.31846545
Si      -1.23428504      -2.64438879       4.65890265
Si      -0.74844186       3.09674201       0.72887180
Si       0.30216344      -0.56451442       4.39964145
Si       0.51763843       5.35142431       0.98813264
Si       4.14657731       6.41334163      -0.00000052
Si      -2.93301241      -1.01741455       5.38777457
Si      -0.07398891       6.09164525       3.30659861
Si      -2.88158832       1.74924603       3.30659896
Si       2.57387862       1.29378783       2.08117528
Si       2.79267854       4.31932174      -0.00000035
14
Lattice="6.828090700663489 1.5483268108826296 -1.2403536506976187 -1.390352054257452 6.862001265906441 1.2403529741587933 -4.349407494313763 -3.150931192527915 5.4329126562310845" Properties=species:S:1:pos:R:3 unique_starting_index=10 config_type=initial n_minim_iter=5 stress="0.006775838341860103 -0.0010501292410363718 -0.00205086070183741 -0.0010501292410363718 0.0058306129181451005 0.0013259939569020072 -0.00205086070183741 0.0013259939569020072 0.004720937244378041" pbc="T T T"
Si       2.17894411       4.96057871       2.83632956
Si      -0.72008536       0.87189807       2.59658238
Si       0.66169223       2.91608697       3.09239983
Si       3.47596020       7.05957049       2.34051177
Si      -1.21070602      -2.60506602       4.69286209
Si      -0.79035975       3.08621899       0.74005027
Si       0.30654587      -0.56057429       4.43679182
Si       0.45133333       5.30887466       0.99612020
Si       4.08003007       6.31041573      -0.00000051
Si      -2.93672088      -0.96598655       5.43291248
Si      -0.15273654       6.05802942       3.33663248
Si      -2.92313172       1.77317243       3.33663282
Si       2.56883373       1.25496894       2.09627934
Si       2.74881186       4.25147494      -0.00000034
14
Lattice="6.781735534101156 1.5526053636527197 -1.1988429953033561 -1.367426073948658 6.821485748512334 1.198842321679484 -4.287760721667264 -3.1650966048372733 5.428347537171004" Properties=species:S:1:pos:R:3 unique_starting_index=10 config_type=initial n_minim_iter=6 stress="-0.0021024825177550005 -0.002175737884102596 0.0014063104817588928 -0.002175737884102596 -0.004060873666966358 -0.0009092562615944486 0.0014063104817588928 -0.0009092562615944486 0.0024988551192720934" pbc="T T T"
Si       2.18090466       4.92797639       2.84817347
Si      -0.68897338       0.84614037       2.58017335
Si       0.69149471       2.87692049       3.07962021
Si       3.46623066       7.02027102       2.34872628
Si      -1.16094588      -2.61875027       4.69492584
Si      -0.78504265       3.07557699       0.73342141
Si       0.32846407      -0.56769437       4.46347910
Si       0.47406276       5.27553746       0.96486781
Si       4.05231074       6.26754337      -0.00000050
Si      -2.87413413      -0.97869814       5.42834736
Si      -0.11201731       6.02826510       3.31359459
Si      -2.88764263       1.73531889       3.31359494
Si       2.57305708       1.24473215       2.11475211
Si       2.73466242       4.22959058      -0.00000034
14
Lattice="6.778586313265003 1.5662841727992005 -1.1695869420209666 -1.3536598657137262 6.824227799767059 1.169586267076176 -4.2837692453366865 -3.1793199834154016 5.3365251224134065" Properties=species:S:1:pos:R:3 unique_starting_index=10 config_type=initial n_minim_iter=7 stress="-0.01788075399261653 -0.0030000877683874667 0.0014114451964218019 -0.0030000877683874667 -0.020581145971282012 -0.0009125759111546067 0.0014114451964218019 -0.0009125759111546067 -0.011754182925921177" pbc="T T T"
Si       2.18811938       4.89844987       2.82901184
Si      -0.71486819       0.82637831       2.50751257
Si       0.70755643       2.85277780       3.00580316
Si       3.45223153       7.02720698       2.33072091
Si      -1.15578525      -2.59140377       4.59098187
Si      -0.74761475       3.09370360       0.74554296
Si       0.32477770      -0.54573170       4.41419055
Si       0.51021197       5.28338690       0.92233394
Si       4.02283211       6.22194998      -0.00000050
Si      -2.85293662      -0.96630965       5.33652494
Si      -0.06038861       6.08864390       3.25305535
Si      -2.89331557       1.70707158       3.25305570
Si       2.58934037       1.26899321       2.08346892
Si       2.72676301       4.21737288      -0.00000034
14
Lattice="6.866214993240523 1.6071084696089664 -1.129317319312302 -1.352395219177545 6.9208911772306125 1.129316633307805 -4.325985954145791 -3.249505614051965 5.267233604643553" Properties=species:S:1:pos:R:3 unique_starting_index=10 config_type=initial n_minim_iter=8 stress="-0.009714809251266627 -0.0010581309603881065 0.0021754722998264552 -0.0010581309603881065 -0.010667237802153564 -0.0014065619647503566 0.0021754722998264552 -0.0014065619647503566 -0.008077262466350696" pbc="T T T"
Si       2.24239860       4.91447437       2.82460542
Si      -0.76474852       0.81226662       2.44262746
Si       0.73779935       2.86158120       2.94699238
Si       3.49452418       7.12570062       2.32024016
Si      -1.16290520      -2.58917881       4.51158582
Si      -0.69598712       3.15542608       0.75564748
Si       0.34169405      -0.53628564       4.38919885
Si       0.55855995       5.36999173       0.87803410
Si       4.04240155       6.25221723      -0.00000050
Si      -2.85986887      -0.98192225       5.26723342
Si       0.01068258       6.24347512       3.19827476
Si      -2.92685272       1.70010934       3.19827513
Si       2.64851940       1.31072391       2.06895797
Si       2.75695995       4.26407726      -0.00000034
14
Lattice="6.89893236612743 1.619057735474628 -1.1630580875023961 -1.3549259840714718 6.955630303958839 1.1630573977422174 -4.370665401958977 -3.2537207419896563 5.301340245427014" Properties=species:S:1:pos:R:3 unique_starting_index=10 config_type=initial n_minim_iter=9 stress="-8.331992273734502e-05 -0.0008470679514366436 0.0008543151406627914 -0.0008470679514366436 -0.0008457695306446595 -0.0005523616589918717 0.0008543151406627914 -0.0005523616589918717 -0.0018554603528740613" pbc="T T T"
Si       2.24399997       4.94154976       2.84226345
Si      -0.78539503       0.82062365       2.45907607
Si       0.72790607       2.88451840       2.96826310
Si       3.50500811       7.16856569       2.33307608
Si      -1.19252710      -2.58158597       4.52821736
Si      -0.69139906       3.17400316       0.77312258
Si       0.32356680      -0.52455461       4.40221771
Si       0.56220418       5.40074915       0.89912188
Si       4.06305820       6.28416603      -0.00000051
Si      -2.90026254      -0.97950874       5.30134006
Si       0.00415409       6.28514881       3.23219847
Si      -2.94719696       1.72041480       3.23219883
Si       2.64929950       1.32504815       2.06914091
Si       2.77283877       4.28863638      -0.00000034
14
Lattice="6.899236760871793 1.6661915141383004 -1.2400996177633006 -1.3120694353095734 6.975251792253674 1.240098922633232 -4.431427971722355 -3.2617649916207845 5.391298684635357" Properties=species:S:1:pos:R:3 unique_starting_index=10 config_type=initial n_minim_iter=10 stress="0.005948894963091865 0.0008419804197740031 -0.0009735799952476987 0.0008419804197740031 0.006706765283203943 0.0006294724740200846 -0.0009735799952476987 0.0006294724740200846 0.0020131520636202166" pbc="T T T"
Si       2.23169364       4.98422643       2.89984432
Si      -0.80219003       0.81887189       2.49145364
Si       0.72190082       2.90658177       3.01684761
Si       3.50999072       7.23085539       2.37445000
Si      -1.23884173      -2.56269567       4.56705338
Si      -0.67276684       3.19823235       0.82424499
Si       0.27095110      -0.48505101       4.45005009
Si       0.60221974       5.42769216       0.94124793
Si       4.08670050       6.32073261      -0.00000051
Si      -2.95269981      -0.97467659       5.39129850
Si       0.02550996       6.33781494       3.31569844
Si      -2.95368503       1.73001583       3.31569881
Si       2.62874183       1.35955130       2.07559936
Si       2.79553806       4.32374445      -0.00000035
14
Lattice="6.771517680850025 1.7023990447455086 -1.388222665687188 -1.2266351954620847 6.873644027897579 1.3882219758180085 -4.435830647986219 -3.2125485458983745 5.667087030019911" Properties=species:S:1:pos:R:3 unique_starting_index=10 config_type=initial n_minim_iter=11 stress="0.0017618430711942097 -0.00023849948484986475 0.001152208421301459 -0.00023849948484986475 0.00154716846965259 -0.0007449655350071445 0.001152208421301459 -0.0007449655350071445 0.006870719160521249" pbc="T T T"
Si       2.16834299       4.92474497       3.06988104
Si      -0.83483471       0.78590718       2.59720527
Si       0.69321464       2.88145385       3.19149777
Si       3.45216188       7.17819995       2.47558819
Si      -1.27766826      -2.46033595       4.73663765
Si      -0.61017759       3.18865134       0.93044906
Si       0.19746009      -0.41704484       4.61502092
Si       0.64770831       5.37240164       1.05206545
Si       4.04764111       6.26032105      -0.00000050
Si      -2.98370938      -0.96661194       5.66708685
Si       0.05222907       6.29028054       3.52765414
Si      -2.89713356       1.72862192       3.52765451
Si       2.55093727       1.38409983       2.13943201
Si       2.77556811       4.29285774      -0.00000034
14
Lattice="6.7332961058031024 1.7306590232486103 -1.4671201332202617 -1.1851785151803376 6.8503876544143365 1.4671194429485857 -4.46835094390068 -3.1950700209467553 5.766899432606984" Properties=species:S:1:pos:R:3 unique_starting_index=10 config_type=initial n_minim_iter=12 stress="-0.0008045029996589925 -0.0009161095126447722 -0.0004981866930122826 -0.0009161095126447722 -0.0016290969711362762 0.00032210560646445856 -0.0004981866930122826 0.00032210560646445856 0.004861729595128069" pbc="T T T"
Si       2.12817298       4.92065595       3.15128723
Si      -0.85459786       0.76507635       2.61561149
Si       0.68154046       2.87170849       3.25024049
Si       3.41878098       7.18603681       2.51665788
Si      -1.30296314      -2.41214645       4.76550133
Si      -0.58513747       3.20784414       1.00139778
Si       0.14366937      -0.36319899       4.66654807
Si       0.68960128       5.36793037       1.10035070
Si       4.03711124       6.24403493      -0.00000050
Si      -3.01708369      -0.95045428       5.76689925
Si       0.07127102       6.30993224       3.61700908
Si      -2.89100259       1.72830475       3.61700945
Si       2.51993861       1.41373150       2.14988948
Si       2.77362216       4.28984802      -0.00000034
14
Lattice="6.727816925237019 1.755610061797875 -1.4808594650002802 -1.1601768906268557 6.855631181928538 1.4808587722997122 -4.483421004474896 -3.2067348483603912 5.768585069808509" Properties=species:S:1:pos:R:3 unique_starting_index=10 config_type=initial n_minim_iter=13 stress="-0.004336079062673494 0.000685461620167475 -0.0017949404534181902 0.000685461620167475 -0.003719091833284906 0.0011605276986302025 -0.0017949404534181902 0.0011605276986302025 -0.0008870843931271659" pbc="T T T"
Si       2.11493262       4.92007280       3.18418898
Si      -0.86476580       0.74109827       2.58439538
Si       0.68925818       2.85646664       3.25154291
Si       3.40616688       7.20534904       2.51704109
Si      -1.30042564      -2.39393910       4.72825837
Si      -0.56512314       3.23616022       1.04032637
Si       0.12524880      -0.33033294       4.66090444
Si       0.73158421       5.38315069       1.10767997
Si       4.03791264       6.24527442      -0.00000050
Si      -3.02446805      -0.95023195       5.76858489
Si       0.09983846       6.34322531       3.62472156
Si      -2.88884189       1.72075559       3.62472193
Si       2.52264508       1.44045193       2.14386263
Si       2.77528291       4.29241662      -0.00000034
14
Lattice="6.736879766644082 1.750186288361557 -1.4420350377652165 -1.1688422808377 6.861669676882763 1.442034345015202 -4.463667444807249 -3.2199424603502877 5.72061807845683" Properties=species:S:1:pos:R:3 unique_starting_index=10 config_type=initial n_minim_iter=14 stress="-0.006389349784400363 -0.0011292201135360944 -0.00212536812743044 -0.0011292201135360944 -0.007405765224888011 0.0013741673530218586 -0.00212536812743044 0.0013741673530218586 -0.00537629823621002" pbc="T T T"
Si       2.07909728       4.84355183       3.25437257
Si      -0.90008503       0.66380774       2.46624480
Si       0.70385922       2.77585171       3.26353165
Si       3.34681250       7.17298618       2.45708537
Si      -1.23013045      -2.33948039       4.60553651
Si      -0.52416046       3.31001987       1.11508123
Si       0.14510761      -0.27178027       4.59637743
Si       0.79697949       5.41269739       1.12423997
Si       4.02325417       6.22260277      -0.00000050
Si      -3.00904723      -0.97014083       5.72061790
Si       0.12053782       6.36308081       3.58132585
Si      -2.87886571       1.72402598       3.58132622
Si       2.56626026       1.47630946       2.13929134
Si       2.74637402       4.24770443      -0.00000034
14
Lattice="6.72450309575058 1.7680186266181432 -1.4434989125769129 -1.1475014674280088 6.857701811413615 1.4434982187116212 -4.455901254305916 -3.234793867733407 5.750481084246396" Properties=species:S:1:pos:R:3 unique_starting_index=10 config_type=initial n_minim_iter=15 stress="-0.002008409498986564 7.656675591243281e-05 -0.00208658603563576 7.656675591243281e-05 -0.0019394910689913847 0.0013490926410591295 -0.00208658603563576 0.0013490926410591295 0.0013504195310660141" pbc="T T T"
Si       2.06317307       4.79254896       3.33169673
Si      -0.93229319       0.61350318       2.41878366
Si       0.70152490       2.73135490       3.33714290
Si       3.32392405       7.15160889       2.41333713
Si      -1.20202218      -2.29144011       4.57227492
Si      -0.47515776       3.35438091       1.17820582
Si       0.15962599      -0.23024605       4.56682875
Si       0.84562662       5.44199564       1.18365165
Si       4.03768173       6.24491728      -0.00000050
Si      -3.01897055      -1.01235188       5.75048091
Si       0.13186895       6.34868725       3.59698929
Si      -2.84438166       1.74544210       3.59698966
Si       2.58033415       1.50313286       2.15349091
Si       2.73671800       4.23276986      -0.00000034
14
Lattice="6.759213385641605 1.7471660499063395 -1.3641912516031132 -1.1807622643227893 6.880796259689345 1.364190557557483 -4.42552238676478 -3.256025005903349 5.638633303668526" Properties=species:S:1:pos:R:3 unique_starting_index=10 config_type=initial n_minim_iter=16 stress="0.0014590857802057745 -0.0003431952048367631 0.0009793681160793798 -0.0003431952048367631 0.001150174147375642 -0.0006332153955024623 0.0009793681160793798 -0.0006332153955024623 -0.0010902155708515683" pbc="T T T"
Si       2.08395129       4.74842131       3.29661639
Si      -0.95068195       0.59310961       2.34201622
Si       0.70976421       2.69915634       3.30930376
Si       3.32300897       7.12691866       2.32932849
Si      -1.15878983      -2.28790405       4.47923742
Si      -0.45784759       3.37626661       1.15939553
Si       0.21539724      -0.23863908       4.46655005
Si       0.84691260       5.47041986       1.17208258
Si       4.04586747       6.25757784      -0.00000050
Si      -3.00046976      -1.05195435       5.63863313
Si       0.12405410       6.33976069       3.50141157
Si      -2.83358218       1.76530556       3.50141193
Si       2.62029948       1.49356838       2.13722085
Si       2.73038436       4.22297388      -0.00000034
14
Lattice="6.734300712677922 1.7650258681688624 -1.4034193014160659 -1.1542515610880526 6.865408049521689 1.4034186071716168 -4.435465934810574 -3.251348362204657 5.705550821745421" Properties=species:S:1:pos:R:3 unique_starting_index=10 config_type=initial n_minim_iter=17 stress="0.0021770090981220436 -0.0025400525931634655 -0.0004423160669867582 -0.0025400525931634655 -0.00010930294035110324 0.000285981954202138 -0.0004423160669867582 0.000285981954202138 0.002516457815443981" pbc="T T T"
Si       2.06898982       4.72342533       3.36132959
Si      -0.97727918       0.57388438       2.34422055
Si       0.69758397       2.68478353       3.36789827
Si       3.30655566       7.11706103       2.33765151
Si      -1.17000150      -2.24510949       4.49528647
Si      -0.42256727       3.39075396       1.21026400
Si       0.20140435      -0.20646769       4.48871779
Si       0.87364704       5.47801122       1.21683234
Si       4.04027900       6.24893437      -0.00000050
Si      -3.02246683      -1.06592040       5.70555065
Si       0.13992369       6.34613788       3.55448435
Si      -2.81284556       1.77921038       3.55448472
Si       2.60327332       1.50545829       2.15106558
Si       2.73118093       4.22420591      -0.00000034
14
Lattice="6.70738855910419 1.819921997164629 -1.4203668088984802 -1.093146714794278 6.863396360603693 1.4203661103999317 -4.440658805129297 -3.2854868296495514 5.744058059981816" Properties=species:S:1:pos:R:3 unique_starting_index=10 config_type=initial n_minim_iter=18 stress="0.0013198603273445052 0.0025229592337363107 0.0003041801302868048 0.0025229592337363107 0.0035907865848427904 -0.00019666931212690333 0.0003041801302868048 -0.00019666931212690333 0.0031708443272463888" pbc="T T T"
Si       2.08002153       4.73327446       3.41110893
Si      -0.97801806       0.55384788       2.33294845
Si       0.70815561       2.67625191       3.40484078
Si       3.32343681       7.14194591       2.33921622
Si      -1.17663407      -2.23905492       4.49479424
Si      -0.38532423       3.40593648       1.24926347
Si       0.19523184      -0.18203238       4.50106238
Si       0.92746273       5.50115681       1.24299499
Si       4.05794662       6.27626016      -0.00000050
Si      -3.02984243      -1.10343482       5.74405788
Si       0.19295293       6.36684257       3.58221172
Si      -2.77415867       1.77773235       3.58221209
Si       2.59057501       1.52102493       2.16184544
Si       2.75347125       4.25868143      -0.00000034
14
Lattice="6.710956837020695 1.8088415512102805 -1.4091959957434315 -1.1047154517268303 6.862102823646173 1.409195298240265 -4.435453981140158 -3.2800786766455525 5.719024140518678" Properties=species:S:1:pos:R:3 unique_starting_index=10 config_type=initial n_minim_iter=19 stress="0.001275288128994502 0.0002171093595314206 -0.00021000620814363337 0.0002171093595314206 0.001470709221752284 0.0001357805034896361 -0.00021000620814363337 0.0001357805034896361 0.0011776520203954884" pbc="T T T"
Si       2.07487990       4.71284342       3.41260673
Si      -0.98933423       0.54618238       2.30641673
Si       0.70468876       2.66237326       3.39912232
Si       3.30940800       7.12612279       2.31990077
Si      -1.16790141      -2.22533236       4.46133096
Si      -0.37919014       3.41256580       1.25769282
Si       0.20228973      -0.17486221       4.47481537
Si       0.92830902       5.50356976       1.24420808
Si       4.04824645       6.26125731      -0.00000050
Si      -3.03027524      -1.10674616       5.71902397
Si       0.18947056       6.36843525       3.56410935
Si      -2.77370311       1.78541566       3.56410972
Si       2.59450026       1.51747531       2.15491389
Si       2.74793221       4.25011442      -0.00000034
14
Lattice="6.707513722671089 1.8028825863486844 -1.3985950930565272 -1.1087363861157975 6.856517449444323 1.3985943964820051 -4.426182313003341 -3.2778881921665075 5.702234660880501" Properties=species:S:1:pos:R:3 unique_starting_index=10 config_type=initial n_minim_iter=20 stress="-1.6386390525435312e-05 -0.00015017480580944954 7.518039585787901e-05 -0.00015017480580944954 -0.00015155938368610172 -4.8608279381661204e-05 7.518039585787901e-05 -4.8608279381661204e-05 -0.0005928249070304512" pbc="T T T"
Si       2.07535859       4.70674864       3.40752023
Si      -0.98581687       0.54630806       2.29471374
Si       0.70604356       2.65673943       3.39015010
Si       3.30552209       7.11569224       2.31208351
Si      -1.16179220      -2.22758960       4.44653369
Si      -0.38194814       3.40785658       1.25570061
Si       0.20752283      -0.17758039       4.46390382
Si       0.92549023       5.49787245       1.23833015
Si       4.04217649       6.25186914      -0.00000050
Si      -3.02263431      -1.10707787       5.70223449
Si       0.18883583       6.36169554       3.55041416
Si      -2.77131301       1.78335433       3.55041453
Si       2.59504795       1.51193077       2.15181960
Si       2.74470076       4.24511647      -0.00000034
14
Lattice="6.694935379778977 1.7938073822306597 -1.38318148848446 -1.11184989483407 6.841322708138843 1.3831807938622505 -4.4080919554956886 -3.2723768086992324 5.6779743593044625" Properties=species:S:1:pos:R:3 unique_starting_index=10 config_type=initial n_minim_iter=21 stress="-0.0024044832153117283 -0.0005025125514294617 -1.9008991172068576e-05 -0.0005025125514294617 -0.0028567968916508933 1.2290300739561461e-05 -1.9008991172068576e-05 1.2290300739561461e-05 -0.0038683540266916954" pbc="T T T"
Si       2.07902115       4.70206569       3.40735009
Si      -0.97350004       0.55323745       2.27062359
Si       0.70746460       2.64966046       3.37646684
Si       3.30088205       7.09532429       2.30150647
Si      -1.15637728      -2.23737963       4.41802019
Si      -0.39069951       3.39001804       1.25995382
Si       0.21517927      -0.18497440       4.44890343
Si       0.91800388       5.48306128       1.22907024
Si       4.02951678       6.23228889      -0.00000050
Si      -3.00657157      -1.10470251       5.67797419
Si       0.18936915       6.34609669       3.53057721
Si      -2.76571994       1.77558119       3.53057758
Si       2.59195275       1.50109903       2.14739626
Si       2.73878308       4.23596384      -0.00000034
