18
Lattice="8.472470081533018 -3.2765984134198784e-15 -6.684337159548046e-29 -4.236235040766507 7.337374323411209 -1.2454944480081688e-28 4.03771237785703e-29 1.1018541867909535e-28 5.117844373000215" Properties=species:S:1:pos:R:3 unique_starting_index=28 config_type=initial n_minim_iter=1 energy=-2925.9579773530845 free_energy=-2925.9579773530845 pbc="T T T"
Si      -1.44382128       4.46631680       0.81694768
Si       0.35361941       6.35460182       0.81694768
Si       1.09020186       3.85383002       0.81694768
Si      -0.35361941       6.35460182       3.37586987
Si      -1.09020187       3.85383002       3.37586987
Si       1.44382127       4.46631680       3.37586987
Si      -2.49143444       6.19899797       2.40341636
Si       2.37797189       6.39552085       2.40341636
Si       0.11346253       2.08022983       2.40341636
Si      -2.37797190       6.39552085       4.96233855
Si      -0.11346254       2.08022983       4.96233855
Si       2.49143443       6.19899797       4.96233855
Si       6.04756929       1.46272097       0.38794602
Si       2.47920391       1.36866520       0.38794602
Si       4.18193191       4.50598816       0.38794602
Si       5.99326617       1.36866520       2.94686821
Si       4.29053816       4.50598816       2.94686821
Si       2.42490078       1.46272097       2.94686821
18
Lattice="8.123039704673308 -3.474442075279047e-15 -6.351964642739793e-29 -4.061519852336653 7.034758740196728 -1.1827884437845768e-28 3.9383212131161643e-29 1.0752716469024806e-28 4.948471314144088" Properties=species:S:1:pos:R:3 unique_starting_index=28 config_type=initial n_minim_iter=2 stress="-0.027079114210044174 7.616809940575063e-17 -1.5744024670982476e-16 7.616809940575063e-17 -0.027079114210044376 -5.555559827790575e-17 -1.5744024670982476e-16 -5.555559827790575e-17 -0.041491411199110366" pbc="T T T"
Si      -1.39406124       4.15669588       0.78729263
Si       0.23531499       6.16370324       0.78729263
Si       1.15874624       3.74911836       0.78729263
Si      -0.23531499       6.16370324       3.26152829
Si      -1.15874624       3.74911836       3.26152829
Si       1.39406123       4.15669588       3.26152829
Si      -2.43372909       5.98556312       2.34857076
Si       2.33899441       6.14964839       2.34857076
Si       0.09473467       1.93430597       2.34857076
Si      -2.33899441       6.14964839       4.82280641
Si      -0.09473468       1.93430597       4.82280641
Si       2.43372908       5.98556312       4.82280641
Si       5.68672358       1.42949181       0.35303108
Si       2.45613428       1.39516575       0.35303108
Si       4.04170169       4.21010118       0.35303108
Si       5.66690542       1.39516575       2.82726673
Si       4.08133801       4.21010118       2.82726673
Si       2.43631612       1.42949181       2.82726673
18
Lattice="7.810557539373296 -4.752484651833406e-15 -5.974524916373872e-29 -3.905278769686647 6.7641412468173465 -1.1106705225521609e-28 3.998442728892129e-29 1.0929095335884334e-28 4.9258022397280055" Properties=species:S:1:pos:R:3 unique_starting_index=28 config_type=initial n_minim_iter=3 stress="-0.006747424045396687 2.3463956426216642e-17 7.039186927864992e-18 2.3463956426216642e-17 -0.006747424045397014 1.5907495913500964e-16 7.039186927864992e-18 1.5907495913500964e-16 -0.03896688920472967" pbc="T T T"
Si      -1.35734029       3.77625633       0.77805682
Si       0.04372529       6.05150426       0.77805682
Si       1.31361500       3.70052191       0.77805682
Si      -0.04372529       6.05150426       3.24095794
Si      -1.31361500       3.70052191       3.24095794
Si       1.35734029       3.77625633       3.24095794
Si      -2.42050615       5.83001517       2.38252922
Si       2.35391555       5.94535348       2.38252922
Si       0.06659060       1.75291385       2.38252922
Si      -2.35391555       5.94535348       4.84543034
Si      -0.06659061       1.75291385       4.84543034
Si       2.42050615       5.83001517       4.84543034
Si       5.27143469       1.42310590       0.31232570
Si       2.50200728       1.48739194       0.31232570
Si       3.94239433       3.85364342       0.31232570
Si       5.30855026       1.48739194       2.77522682
Si       3.86816320       3.85364342       2.77522682
Si       2.53912284       1.42310590       2.77522682
18
Lattice="7.6808710566269225 -4.58729594577774e-15 -5.841550562397923e-29 -3.840435528313459 6.651829458231534 -1.08547428058495e-28 4.0760876367475596e-29 1.1143460281997661e-28 5.004309630487303" Properties=species:S:1:pos:R:3 unique_starting_index=28 config_type=initial n_minim_iter=4 stress="-0.022696011524528745 -4.6679150160284364e-17 -9.74834345207799e-17 -4.6679150160284364e-17 -0.022696011524528856 -6.203984724791283e-17 -9.74834345207799e-17 -6.203984724791283e-17 -0.01866902558905775" pbc="T T T"
Si      -1.33710417       3.67740522       0.78863481
Si       0.01284289       5.97109303       0.78863481
Si       1.32426127       3.65516068       0.78863481
Si      -0.01284289       5.97109303       3.29078963
Si      -1.32426128       3.65516068       3.29078963
Si       1.33710416       3.67740522       3.29078963
Si      -2.39372180       5.74591474       2.42905740
Si       2.33253350       5.85189598       2.42905740
Si       0.06118829       1.70584820       2.42905740
Si      -2.33253351       5.85189598       4.93121222
Si      -0.06118830       1.70584820       4.93121222
Si       2.39372180       5.74591474       4.93121222
Si       5.15010157       1.40822431       0.31057077
Si       2.48494276       1.48759851       0.31057077
Si       3.88626224       3.75600664       0.31057077
Si       5.19592829       1.48759851       2.81272558
Si       3.79460881       3.75600664       2.81272558
Si       2.53076948       1.40822431       2.81272558
18
Lattice="7.784127569887785 -5.565632874699067e-15 -5.908744546517764e-29 -3.892063784943891 6.741252221821645 -1.0977994876726187e-28 4.1324528080756156e-29 1.1298652588399381e-28 5.064695668848676" Properties=species:S:1:pos:R:3 unique_starting_index=28 config_type=initial n_minim_iter=5 stress="-2.7905979174600883e-05 6.17211264927844e-17 -5.890137959717495e-17 6.17211264927844e-17 -2.7905979174921705e-05 4.0990765056544625e-17 -5.890137959717495e-17 4.0990765056544625e-17 0.007385914628815535" pbc="T T T"
Si      -1.35239861       3.72267100       0.79564654
Si       0.00806317       6.05112827       0.79564654
Si       1.34433543       3.70870517       0.79564654
Si      -0.00806318       6.05112827       3.32799438
Si      -1.34433544       3.70870517       3.32799438
Si       1.35239860       3.72267100       3.32799438
Si      -2.42925264       5.82869113       2.46303712
Si       2.37035712       5.93070115       2.46303712
Si       0.05889551       1.72311216       2.46303712
Si      -2.37035713       5.93070115       4.99538496
Si      -0.05889551       1.72311216       4.99538496
Si       2.42925263       5.82869113       4.99538496
Si       5.20925469       1.43144318       0.31215419
Si       2.52710260       1.51418374       0.31215419
Si       3.93983406       3.79562531       0.31215419
Si       5.25702497       1.51418374       2.84450202
Si       3.84429350       3.79562531       2.84450202
Si       2.57487288       1.43144318       2.84450202
18
Lattice="7.809768351051473 -5.598774148833107e-15 -5.894265944377497e-29 -3.904884175525737 6.763457789682277 -1.094627239306202e-28 4.122735339849446e-29 1.1275667635902708e-28 5.024007278063123" Properties=species:S:1:pos:R:3 unique_starting_index=28 config_type=initial n_minim_iter=6 stress="0.0003974807069473503 -1.030218330328935e-17 -7.216757846974266e-17 -1.030218330328935e-17 0.0003974807069473503 9.580507518591924e-17 -7.216757846974266e-17 9.580507518591924e-17 0.0007510200753159617" pbc="T T T"
Si      -1.35542620       3.70384685       0.78307111
Si      -0.01954562       6.08536789       0.78307111
Si       1.37497181       3.73770085       0.78307111
Si       0.01954561       6.08536789       3.29507475
Si      -1.37497181       3.73770085       3.29507475
Si       1.35542619       3.70384685       3.29507475
Si      -2.45136781       5.86293847       2.45514095
Si       2.39825338       5.95493536       2.45514095
Si       0.05311442       1.70904176       2.45514095
Si      -2.39825339       5.95493536       4.96714459
Si      -0.05311443       1.70904176       4.96714459
Si       2.45136781       5.86293847       4.96714459
Si       5.19171387       1.44741330       0.30393865
Si       2.56252393       1.54359504       0.30393865
Si       3.96041472       3.77244945       0.30393865
Si       5.24724442       1.54359504       2.81594229
Si       3.84935362       3.77244945       2.81594229
Si       2.61805448       1.44741330       2.81594229
18
Lattice="7.965783574528102 -5.3537220591925434e-15 -5.940093278232796e-29 -3.9828917872640512 6.898570936590139 -1.1021101298785937e-28 4.1224695476172624e-29 1.1283126792770993e-28 4.957947907623329" Properties=species:S:1:pos:R:3 unique_starting_index=28 config_type=initial n_minim_iter=7 stress="0.008491690031068758 -5.0529187910480854e-17 -1.0248460289908012e-16 -5.0529187910480854e-17 0.008491690031068446 9.63722011357155e-17 -1.0248460289908012e-16 9.63722011357155e-17 -0.0014896216715296717" pbc="T T T"
Si      -1.35111664       3.74105877       0.71632900
Si      -0.06748154       6.19814289       0.71632900
Si       1.41859817       3.85794022       0.71632900
Si       0.06748153       6.19814289       3.19530296
Si      -1.41859818       3.85794022       3.19530296
Si       1.35111664       3.74105877       3.19530296
Si      -2.54190288       6.03306279       2.48610701
Si       2.51284528       6.08339201       2.48610701
Si       0.02905759       1.68068708       2.48610701
Si      -2.51284529       6.08339201       4.96508096
Si      -0.02905759       1.68068708       4.96508096
Si       2.54190287       6.03306279       4.96508096
Si       5.21633766       1.51259593       0.29313988
Si       2.68466945       1.62479205       0.29313988
Si       4.04766824       3.76118297       0.29313988
Si       5.28111412       1.62479205       2.77211383
Si       3.91811533       3.76118297       2.77211383
Si       2.74944591       1.51259593       2.77211383
18
Lattice="8.107627252383791 -5.791433911356005e-15 -6.010075168708383e-29 -4.053813626191896 7.021411164979381 -1.1145767675357384e-28 4.119759331728211e-29 1.1280519531487073e-28 4.9160590429360544" Properties=species:S:1:pos:R:3 unique_starting_index=28 config_type=initial n_minim_iter=8 stress="0.01831239766031215 -1.3884907939302227e-17 -3.3869257580512217e-17 -1.3884907939302227e-17 0.018312397660311643 1.178729506132907e-16 -3.3869257580512217e-17 1.178729506132907e-16 -0.005976060594203443" pbc="T T T"
Si      -1.32334329       3.81549909       0.61857807
Si      -0.08782284       6.25971053       0.61857807
Si       1.41116613       3.96761271       0.61857807
Si       0.08782284       6.25971053       3.07660759
Si      -1.41116613       3.96761271       3.07660759
Si       1.32334329       3.81549909       3.07660759
Si      -2.63100953       6.20156989       2.55222837
Si       2.63240820       6.19914731       2.55222837
Si      -0.00139868       1.64210513       2.55222837
Si      -2.63240821       6.19914731       5.01025789
Si       0.00139868       1.64210513       5.01025789
Si       2.63100952       6.20156989       5.01025789
Si       5.25787736       1.57256008       0.29523591
Si       2.78675192       1.68167576       0.29523591
Si       4.11681159       3.76717533       0.29523591
Si       5.32087533       1.68167576       2.75326543
Si       3.99081565       3.76717533       2.75326543
Si       2.84974989       1.57256008       2.75326543
18
Lattice="8.172163464653355 -5.533788316953266e-15 -6.047814625155658e-29 -4.086081732326678 7.077301164268845 -1.1214286556256526e-28 4.140372622179205e-29 1.133819780811095e-28 4.930731443988256" Properties=species:S:1:pos:R:3 unique_starting_index=28 config_type=initial n_minim_iter=9 stress="0.024952327814798617 -1.827804556220536e-16 -9.538064244388314e-18 -1.827804556220536e-16 0.024952327814797722 -9.330027383955865e-17 -9.538064244388314e-18 -9.330027383955865e-17 -0.001059335145140062" pbc="T T T"
Si      -1.26346780       3.90963252       0.49893321
Si      -0.06850676       6.21668011       0.49893321
Si       1.33197455       4.02828970       0.49893321
Si       0.06850675       6.21668011       2.96429893
Si      -1.33197455       4.02828970       2.96429893
Si       1.26346779       3.90963252       2.96429893
Si      -2.69137631       6.31210897       2.66364766
Si       2.72605314       6.25204694       2.66364766
Si      -0.03467683       1.59044643       2.66364766
Si      -2.72605314       6.25204694       5.12901338
Si       0.03467682       1.59044643       5.12901338
Si       2.69137631       6.31210897       5.12901338
Si       5.29477798       1.60797119       0.31380619
Si       2.83123664       1.68790333       0.31380619
Si       4.13223057       3.78142665       0.31380619
Si       5.34092682       1.68790333       2.77917192
Si       4.03993289       3.78142665       2.77917192
Si       2.87738548       1.60797119       2.77917192
18
Lattice="8.054185972071911 -5.317413428948985e-15 -5.933778991204689e-29 -4.027092986035956 6.9751296586185205 -1.0998938798059127e-28 4.1853006405890837e-29 1.146197067337932e-28 4.978295159311684" Properties=species:S:1:pos:R:3 unique_starting_index=28 config_type=initial n_minim_iter=10 stress="0.005103378255253314 -1.1829650492604055e-16 5.210206802531149e-19 -1.1829650492604055e-16 0.005103378255251891 -8.606765427609788e-17 5.210206802531149e-19 -8.606765427609788e-17 0.012863256876486063" pbc="T T T"
Si      -1.22364081       3.91385681       0.46234125
Si      -0.02577316       6.07790528       0.46234125
Si       1.24941396       3.95849723       0.46234125
Si       0.02577315       6.07790528       2.95148883
Si      -1.24941397       3.95849723       2.95148883
Si       1.22364081       3.91385681       2.95148883
Si      -2.65197968       6.22659778       2.71590736
Si       2.69128871       6.15851254       2.71590736
Si      -0.03930904       1.56514900       2.71590736
Si      -2.69128871       6.15851254       5.20505494
Si       0.03930903       1.56514900       5.20505494
Si       2.65197967       6.22659778       5.20505494
Si       5.26755382       1.57546628       0.33167300
Si       2.75770989       1.62556109       0.33167300
Si       4.05601524       3.77410229       0.33167300
Si       5.29647607       1.62556109       2.82082058
Si       3.99817073       3.77410229       2.82082058
Si       2.78663215       1.57546628       2.82082058
18
Lattice="7.932829472900214 -4.909438985157359e-15 -5.779527812292163e-29 -3.966414736450107 6.870031847421485 -1.070352436540636e-28 4.166157039688503e-29 1.1415252001844353e-28 4.909684525089044" Properties=species:S:1:pos:R:3 unique_starting_index=28 config_type=initial n_minim_iter=11 stress="-0.013570105780557007 -1.6928946667261202e-16 1.0788054248744884e-17 -1.6928946667261202e-16 -0.013570105780558705 -8.096227251101329e-17 1.0788054248744884e-17 -8.096227251101329e-17 -0.019830623573129164" pbc="T T T"
Si      -1.24368564       3.83908109       0.47990899
Si      -0.01983017       6.02755466       0.47990899
Si       1.26351581       3.87342795       0.47990899
Si       0.01983017       6.02755466       2.93475126
Si      -1.26351581       3.87342795       2.93475126
Si       1.24368563       3.83908109       2.93475126
Si      -2.60395697       6.11369984       2.65482282
Si       2.63018312       6.06827481       2.65482282
Si      -0.02622616       1.55808904       2.65482282
Si      -2.63018313       6.06827481       5.10966508
Si       0.02622615       1.55808904       5.10966508
Si       2.60395697       6.11369984       5.10966508
Si       5.22603570       1.52944387       0.32681622
Si       2.67793413       1.57943023       0.32681622
Si       3.99527437       3.76115774       0.32681622
Si       5.25489534       1.57943023       2.78165848
Si       3.93755510       3.76115774       2.78165848
Si       2.70679377       1.52944387       2.78165848
18
Lattice="7.953314032124489 -5.896063201370865e-15 -5.733711603149657e-29 -3.9766570160622474 6.887771996095036 -1.0609682750414586e-28 4.2569237930418375e-29 1.1668350546227823e-28 4.981333432471346" Properties=species:S:1:pos:R:3 unique_starting_index=28 config_type=initial n_minim_iter=12 stress="-0.0055328096394488555 -2.5324068155960683e-16 2.2834635208407163e-17 -2.5324068155960683e-16 -0.005532809639450001 -5.1644926623914196e-17 2.2834635208407163e-17 -5.1644926623914196e-17 0.009799389951743353" pbc="T T T"
Si      -1.27765639       3.81560588       0.39986470
Si      -0.03341720       6.08645195       0.39986470
Si       1.31107358       3.87348617       0.39986470
Si       0.03341720       6.08645195       2.89053141
Si      -1.31107359       3.87348617       2.89053141
Si       1.27765639       3.81560588       2.89053141
Si      -2.65554943       6.17098621       2.77667806
Si       2.69534852       6.10205216       2.77667806
Si      -0.03979910       1.50250562       2.77667806
Si      -2.69534853       6.10205216       5.26734477
Si       0.03979909       1.50250562       5.26734477
Si       2.65554943       6.17098621       5.26734477
Si       5.27152572       1.52157145       0.33552098
Si       2.65861368       1.56171108       0.33552098
Si       3.99983164       3.80448947       0.33552098
Si       5.29470035       1.56171108       2.82618769
Si       3.95348238       3.80448947       2.82618769
Si       2.68178830       1.52157145       2.82618769
18
Lattice="7.9902444446653575 -5.965373487927396e-15 -5.735868187382987e-29 -3.995122222332682 6.9197546715276665 -1.061001308747778e-28 4.2520786556423793e-29 1.1658210830686797e-28 4.9504415709144975" Properties=species:S:1:pos:R:3 unique_starting_index=28 config_type=initial n_minim_iter=13 stress="0.001352414882379616 -3.243030031775776e-16 2.2055392828961695e-17 -3.243030031775776e-16 0.00135241488237837 -6.624223156560564e-17 2.2055392828961695e-17 -6.624223156560564e-17 0.00011457139209109055" pbc="T T T"
Si      -1.30075204       3.82764036       0.37707141
Si      -0.02991242       6.13241880       0.37707141
Si       1.33066445       3.87945018       0.37707141
Si       0.02991241       6.13241880       2.85229219
Si      -1.33066446       3.87945018       2.85229219
Si       1.30075204       3.82764036       2.85229219
Si      -2.67328431       6.20110466       2.77688453
Si       2.71183409       6.13433447       2.77688453
Si      -0.03854979       1.50407022       2.77688453
Si      -2.71183410       6.13433447       5.25210532
Si       0.03854978       1.50407022       5.25210532
Si       2.67328430       6.20110466       5.25210532
Si       5.32051161       1.51945263       0.33632764
Si       2.65075099       1.55233014       0.33632764
Si       4.01410406       3.84797190       0.33632764
Si       5.33949345       1.55233014       2.81154843
Si       3.97614038       3.84797190       2.81154843
Si       2.66973283       1.51945263       2.81154843
18
Lattice="7.982305678099036 -5.9616468953612596e-15 -5.702780321617572e-29 -3.991152839049521 6.912879498006516 -1.0544693527503398e-28 4.2690788878151597e-29 1.1707096081479227e-28 4.951968840945514" Properties=species:S:1:pos:R:3 unique_starting_index=28 config_type=initial n_minim_iter=14 stress="-6.025986638032488e-05 -2.7508933002085065e-16 1.0449483919835691e-17 -2.7508933002085065e-16 -6.0259866381573024e-05 3.536064728644277e-17 1.0449483919835691e-17 3.536064728644277e-17 0.00042753832529697825" pbc="T T T"
Si      -1.31099418       3.81653724       0.37845045
Si      -0.03043755       6.13996514       0.37845045
Si       1.34143172       3.86925661       0.37845045
Si       0.03043754       6.13996514       2.85443487
Si      -1.34143173       3.86925661       2.85443487
Si       1.31099418       3.81653724       2.85443487
Si      -2.66770662       6.18898185       2.77676603
Si       2.70251597       6.12869027       2.77676603
Si      -0.03480936       1.50808688       2.77676603
Si      -2.70251597       6.12869027       5.25275045
Si       0.03480935       1.50808688       5.25275045
Si       2.66770661       6.18898185       5.25275045
Si       5.32368091       1.51404636       0.33614389
Si       2.64051499       1.54541341       0.33614389
Si       4.00926261       3.85341973       0.33614389
Si       5.34179068       1.54541341       2.81212831
Si       3.97304306       3.85341973       2.81212831
Si       2.65862476       1.51404636       2.81212831
18
Lattice="7.996043257051786 -6.314133120822066e-15 -5.67061300479321e-29 -3.9980216285258945 6.924776590366091 -1.0478877338218104e-28 4.288530246568037e-29 1.1764473680537929e-28 4.942120980023393" Properties=species:S:1:pos:R:3 unique_starting_index=28 config_type=initial n_minim_iter=15 stress="0.0024160375994423337 -1.4099698248051558e-16 6.730352319915628e-17 -1.4099698248051558e-16 0.0024160375994408795 1.4719674189360542e-17 6.730352319915628e-17 1.4719674189360542e-17 -0.0029218329893905197" pbc="T T T"
Si      -1.32744102       3.80599753       0.35745935
Si      -0.03821058       6.17137547       0.35745935
Si       1.36565159       3.87218019       0.35745935
Si       0.03821057       6.17137547       2.82851984
Si      -1.36565159       3.87218019       2.82851984
Si       1.32744101       3.80599753       2.82851984
Si      -2.66777813       6.19086030       2.79120563
Si       2.69730973       6.13971007       2.79120563
Si      -0.02953160       1.51898281       2.79120563
Si      -2.69730973       6.13971007       5.26226612
Si       0.02953160       1.51898281       5.26226612
Si       2.66777813       6.19086030       5.26226612
Si       5.33613496       1.52037443       0.33575220
Si       2.64663702       1.54336094       0.33575220
Si       4.01129290       3.86104122       0.33575220
Si       5.34940623       1.54336094       2.80681269
Si       3.98475036       3.86104122       2.80681269
Si       2.65990829       1.52037443       2.80681269
18
Lattice="7.979693174789024 -7.300052837548745e-15 -5.613146472901106e-29 -3.989846587394516 6.910617003772578 -1.0365707580517024e-28 4.324743555338828e-29 1.1867268896061845e-28 4.956122342662243" Properties=species:S:1:pos:R:3 unique_starting_index=28 config_type=initial n_minim_iter=16 stress="-0.0003055894812491311 -3.349060028433449e-16 4.5633513521382536e-17 -3.349060028433449e-16 -0.00030558948125027503 2.1426710239906405e-17 4.5633513521382536e-17 2.1426710239906405e-17 0.0014443467484840393" pbc="T T T"
Si      -1.31309494       3.80596356       0.34459728
Si      -0.03723799       6.14480880       0.34459728
Si       1.35033292       3.87046165       0.34459728
Si       0.03723799       6.14480880       2.82265846
Si      -1.35033293       3.87046165       2.82265846
Si       1.31309494       3.80596356       2.82265846
Si      -2.64742655       6.16497443       2.81110638
Si       2.67289115       6.12086844       2.81110638
Si      -0.02546461       1.53539115       2.81110638
Si      -2.67289116       6.12086844       5.28916756
Si       0.02546461       1.53539115       5.28916756
Si       2.64742654       6.16497443       5.28916756
Si       5.31288056       1.53194044       0.33858511
Si       2.66010564       1.54355725       0.33858511
Si       3.99655355       3.83511932       0.33858511
Si       5.31958753       1.54355725       2.81664628
Si       3.98313962       3.83511932       2.81664628
Si       2.66681261       1.53194044       2.81664628
18
Lattice="7.981571713604829 -7.165654704695509e-15 -5.587345895123257e-29 -3.990785856802418 6.912243866109062 -1.0313903830327973e-28 4.3384422634990514e-29 1.1907315395615748e-28 4.95209333999184" Properties=species:S:1:pos:R:3 unique_starting_index=28 config_type=initial n_minim_iter=17 stress="-2.436041448389216e-05 -3.078452129208957e-16 -4.584280251812695e-17 -3.078452129208957e-16 -2.436041448472439e-05 1.0171292440976526e-16 -4.584280251812695e-17 1.0171292440976526e-16 -0.00010445768702816318" pbc="T T T"
Si      -1.31260827       3.81182443       0.33928272
Si      -0.03334494       6.14308376       0.33928272
Si       1.34595320       3.86957955       0.33928272
Si       0.03334493       6.14308376       2.81532939
Si      -1.34595321       3.86957955       2.81532939
Si       1.31260826       3.81182443       2.81532939
Si      -2.64768498       6.16609860       2.81246800
Si       2.67305466       6.12215702       2.81246800
Si      -0.02536969       1.53623211       2.81246800
Si      -2.67305467       6.12215702       5.28851467
Si       0.02536968       1.53623211       5.28851467
Si       2.64768498       6.16609860       5.28851467
Si       5.31847140       1.53187894       0.33969743
Si       2.65819623       1.54037306       0.33969743
Si       3.99568994       3.83999188       0.33969743
Si       5.32337548       1.54037306       2.81574410
Si       3.98588177       3.83999188       2.81574410
Si       2.66310031       1.53187894       2.81574410
18
Lattice="7.9817543964142805 -7.037527535996261e-15 -5.560192252023171e-29 -3.9908771982071434 6.912402074062882 -1.0259576842348691e-28 4.355067289249269e-29 1.1955285492551402e-28 4.952271757757556" Properties=species:S:1:pos:R:3 unique_starting_index=28 config_type=initial n_minim_iter=18 stress="3.479329275799088e-05 -3.2991420044078797e-16 -3.066756419740919e-17 -3.2991420044078797e-16 3.479329275736676e-05 -4.301220516966031e-17 -3.066756419740919e-17 -4.301220516966031e-17 -6.0685798371686455e-05" pbc="T T T"
Si      -1.31313204       3.81390544       0.33772356
Si      -0.03137218       6.14265506       0.33772356
Si       1.34450422       3.86824365       0.33772356
Si       0.03137217       6.14265506       2.81385943
Si      -1.34450422       3.86824365       2.81385943
Si       1.31313204       3.81390544       2.81385943
Si      -2.64729374       6.16536538       2.81366875
Si       2.67213271       6.12234301       2.81366875
Si      -0.02483898       1.53709576       2.81366875
Si      -2.67213271       6.12234301       5.28980463
Si       0.02483897       1.53709576       5.28980463
Si       2.64729373       6.16536538       5.28980463
Si       5.32050205       1.53171279       0.34018164
Si       2.65712836       1.53885574       0.34018164
Si       3.99500118       3.84183354       0.34018164
Si       5.32462603       1.53885574       2.81631752
Si       3.98675321       3.84183354       2.81631752
Si       2.66125234       1.53171279       2.81631752
18
Lattice="7.981480913114169 -7.238103288862641e-15 -5.514190453194435e-29 -3.990740456557087 6.912165230577471 -1.016760273902397e-28 4.3831898899259517e-29 1.2036383675450098e-28 4.95295249205939" Properties=species:S:1:pos:R:3 unique_starting_index=28 config_type=initial n_minim_iter=19 stress="4.1513058771975256e-05 -3.460927373480515e-16 -4.810070708969567e-17 -3.460927373480515e-16 4.151305877093513e-05 -5.310250134162347e-17 -4.810070708969567e-17 -5.310250134162347e-17 9.631861296751872e-05" pbc="T T T"
Si      -1.31550227       3.81932405       0.33465096
Si      -0.02535768       6.14176159       0.33465096
Si       1.34085994       3.86324483       0.33465096
Si       0.02535767       6.14176159       2.81112721
Si      -1.34085994       3.86324483       2.81112721
Si       1.31550226       3.81932405       2.81112721
Si      -2.64715359       6.16270791       2.81639958
Si       2.66989794       6.12331353       2.81639958
Si      -0.02274436       1.53830902       2.81639958
Si      -2.66989795       6.12331353       5.29287583
Si       0.02274435       1.53830902       5.29287583
Si       2.64715359       6.16270791       5.29287583
Si       5.32357544       1.53166362       0.34100335
Si       2.65541233       1.53598185       0.34100335
Si       3.99323359       3.84451977       0.34100335
Si       5.32606858       1.53598185       2.81747959
Si       3.98824732       3.84451977       2.81747959
Si       2.65790546       1.53166362       2.81747959
18
Lattice="7.981243360512944 -7.863294621613349e-15 -5.449355904218864e-29 -3.990621680256473 6.911959503990072 -1.0037959260390211e-28 4.422801070575291e-29 1.2150628807105879e-28 4.953775560045599" Properties=species:S:1:pos:R:3 unique_starting_index=28 config_type=initial n_minim_iter=20 stress="0.0001302832077939426 -2.4400884559992015e-16 -2.3535602151931682e-17 -2.4400884559992015e-16 0.00013028320779259056 -6.02849117237888e-17 -2.3535602151931682e-17 -6.02849117237888e-17 0.00017126954971704995" pbc="T T T"
Si      -1.32914924       3.83548154       0.33793804
Si      -0.00442262       6.14529574       0.33793804
Si       1.33357185       3.84314173       0.33793804
Si       0.00442261       6.14529574       2.81482582
Si      -1.33357185       3.84314173       2.81482582
Si       1.32914923       3.83548154       2.81482582
Si      -2.65315580       6.15330512       2.81515194
Si       2.66487477       6.13300727       2.81515194
Si      -0.01171897       1.53760662       2.81515194
Si      -2.66487477       6.13300727       5.29203972
Si       0.01171897       1.53760662       5.29203972
Si       2.65315580       6.15330512       5.29203972
Si       5.31976935       1.53495661       0.33954422
Si       2.66004842       1.53742580       0.33954422
Si       3.99204726       3.83957710       0.33954422
Si       5.32119494       1.53742580       2.81643200
Si       3.98919609       3.83957710       2.81643200
Si       2.66147401       1.53495661       2.81643200
18
Lattice="7.978875349486331 -6.9383452603780715e-15 -5.400509579869464e-29 -3.9894376747431655 6.9099087462845805 -9.940521994397195e-29 4.450141442774243e-29 1.2229714488424784e-28 4.952484112919263" Properties=species:S:1:pos:R:3 unique_starting_index=28 config_type=initial n_minim_iter=21 stress="-0.0004146659631679847 -9.961832399569044e-17 9.5488737860665e-18 -9.961832399569044e-17 -0.00041466596316975423 1.8758247942763122e-17 9.5488737860665e-18 1.8758247942763122e-17 -0.0004509383409081547" pbc="T T T"
Si      -1.32864310       3.83516992       0.33589931
Si      -0.00376155       6.14296246       0.33589931
Si       1.33240464       3.84168511       0.33589931
Si       0.00376154       6.14296246       2.81214137
Si      -1.33240465       3.84168511       2.81214137
Si       1.32864310       3.83516992       2.81214137
Si      -2.65410572       6.15095275       2.81637287
Si       2.66449652       6.13295535       2.81637287
Si      -0.01039081       1.53590940       2.81637287
Si      -2.66449653       6.13295535       5.29261492
Si       0.01039080       1.53590940       5.29261492
Si       2.65410572       6.15095275       5.29261492
Si       5.31802998       1.53573695       0.33945149
Si       2.66040989       1.53649121       0.33945149
Si       3.98987314       3.83768059       0.33945149
Si       5.31846545       1.53649121       2.81569355
Si       3.98900220       3.83768059       2.81569355
Si       2.66084536       1.53573695       2.81569355
