22
Lattice="5.77820782430247 -1.5614028944615939 -1.7853794218497752 -3.920422717962964 9.525975551219846 -0.298304390233767 -4.668275714124749 -2.0369760619264885 11.665044059924618" Properties=species:S:1:pos:R:3 unique_starting_index=18 config_type=initial n_minim_iter=1 energy=-3582.3336493691863 free_energy=-3582.3336493691863 pbc="T T T"
Si      -1.19347800       7.97990159       1.33556787
Si      -1.08247521       1.09654633       7.00346140
Si      -4.33092625      -1.79719671      10.23166411
Si       0.82169735      -1.01146391       9.37124280
Si      -5.74270519       2.77374359      10.87555395
Si       3.72151090       2.03722361       0.61496197
Si       2.27683357       0.17174563      -0.08272299
Si      -2.94516871       2.43021743      10.03105584
Si      -1.39419211      -2.02320347       9.40929119
Si      -3.05689776       2.36369693       7.62424695
Si       1.49198282      -0.46849021       3.34420231
Si      -4.15888800       3.43154535       5.49958121
Si      -3.10379506      -0.04306493       6.77039134
Si      -2.00197160       5.65913570       1.16615857
Si      -0.09016776       2.46977811       5.36546158
Si       0.61207078       6.41133410      -1.05870011
Si      -0.75594068      -0.01390650       2.71317823
Si       2.45896514      -3.60723557       6.24478346
Si      -0.12959144       2.20158292       1.91458461
Si      -4.58229523       5.34013343       8.59551938
Si      -1.92676526       3.89485931       4.73384411
Si      -3.47594874       0.21043294       9.17355978
22
Lattice="5.776431362426697 -1.5616316385783358 -1.7888825931060708 -3.9193789136280555 9.522965638596682 -0.29555958282777367 -4.673428615817705 -2.035600278875859 11.665146558257785" Properties=species:S:1:pos:R:3 unique_starting_index=18 config_type=initial n_minim_iter=2 stress="-0.000313770793241566 7.419934997125316e-05 0.00017059843024435986 7.419934997125316e-05 -0.00035431391501585994 3.733418224201048e-05 0.00017059843024435986 3.733418224201048e-05 -0.0004974685268449915" pbc="T T T"
Si      -1.19485767       7.97706928       1.33605187
Si      -1.08687049       1.09622527       7.00232704
Si      -4.33533597      -1.79600566      10.23196773
Si       0.81481477      -1.01127779       9.36827116
Si      -5.74736330       2.77347447      10.87647657
Si       3.71861142       2.03585791       0.61232879
Si       2.27560142       0.17133645      -0.08432224
Si      -2.95067408       2.42972383      10.03037114
Si      -1.39964989      -2.02234195       9.40769787
Si      -3.06079269       2.36322633       7.62429317
Si       1.48881820      -0.46848212       3.34226648
Si      -4.16084232       3.43077933       5.50094929
Si      -3.10665281      -0.04260433       6.77077299
Si      -2.00251324       5.65733017       1.16727982
Si      -0.09426401       2.46889738       5.36405233
Si       0.61160422       6.40878889      -1.05895653
Si      -0.75733928      -0.01386317       2.71291021
Si       2.45376128      -3.60618566       6.24140316
Si      -0.13117676       2.20075838       1.91413967
Si      -4.58637437       5.33885909       8.59632963
Si      -1.92946837       3.89369203       4.73388257
Si      -3.48025956       0.21079359       9.17353307
22
Lattice="5.778011853870249 -1.562765668553166 -1.7926872130989988 -3.9209450495516363 9.525520168467189 -0.2939767863014678 -4.679729676116781 -2.035799829848279 11.672625070186312" Properties=species:S:1:pos:R:3 unique_starting_index=18 config_type=initial n_minim_iter=3 stress="-5.394251900169656e-05 1.3932578490791217e-07 -0.00016612912980073707 1.3932578490791217e-07 9.571168643046525e-05 3.744095328184043e-05 -0.00016612912980073707 3.744095328184043e-05 8.692582913916038e-05" pbc="T T T"
Si      -1.19687793       7.97881272       1.33700095
Si      -1.09090980       1.09626144       7.00575954
Si      -4.34091914      -1.79622424      10.23870851
Si       0.80982449      -1.01206757       9.37193514
Si      -5.75400429       2.77445858      10.88387643
Si       3.71804913       2.03557567       0.61064040
Si       2.27579138       0.17098110      -0.08566846
Si      -2.95651218       2.43032074      10.03601362
Si      -1.40455933      -2.02302979       9.41242612
Si      -3.06548523       2.36388114       7.62900242
Si       1.48705119      -0.46888584       3.34283342
Si      -4.16460962       3.43183825       5.50533303
Si      -3.11041314      -0.04240940       6.77535178
Si      -2.00417852       5.65878683       1.16872643
Si      -0.09770136       2.46923236       5.36618430
Si       0.61131952       6.40994741      -1.06012245
Si      -0.75879574      -0.01395276       2.71438499
Si       2.45101491      -3.60746333       6.24278484
Si      -0.13260478       2.20112973       1.91490143
Si      -4.59207832       5.34045715       8.60212029
Si      -1.93270215       3.89462996       4.73670767
Si      -3.48532964       0.21094828       9.17926277
22
Lattice="5.782368729474736 -1.563727110067961 -1.7914716421016257 -3.928730977903418 9.520794436337424 -0.3001423483847238 -4.680674147459273 -2.0388509761956195 11.674589745579786" Properties=species:S:1:pos:R:3 unique_starting_index=18 config_type=initial n_minim_iter=4 stress="0.00018000896958066535 -0.00030032683232992434 5.295323895996135e-05 -0.00030032683232992434 -0.0004766611720729926 -0.00038895535607421874 5.295323895996135e-05 -0.00038895535607421874 0.00030000714763474213" pbc="T T T"
Si      -1.20179380       7.97281786       1.33327067
Si      -1.09177765       1.09141211       7.00523733
Si      -4.34239779      -1.79938012      10.24064808
Si       0.81038351      -1.01803499       9.37510301
Si      -5.75786024       2.76903989      10.88192990
Si       3.71774959       2.03066782       0.61138025
Si       2.27759755       0.16901353      -0.08651858
Si      -2.95757185       2.42510845      10.03473754
Si      -1.40400776      -2.02754582       9.41441511
Si      -3.06807140       2.35943505       7.62774805
Si       1.48736969      -0.47079351       3.34283229
Si      -4.16861348       3.42785696       5.50344070
Si      -3.11095420      -0.04473140       6.77675499
Si      -2.00837574       5.65528924       1.16635823
Si      -0.10037891       2.46446756       5.36460257
Si       0.60910686       6.40433781      -1.06539002
Si      -0.75854928      -0.01602884       2.71387913
Si       2.45380784      -3.60868648       6.24525031
Si      -0.13439720       2.19823491       1.91366118
Si      -4.59640832       5.33580445       8.59901625
Si      -1.93524904       3.89039548       4.73429602
Si      -3.48544806       0.20675051       9.18002859
22
Lattice="5.783276623105383 -1.5639537690568943 -1.7910506084382454 -3.926343490082045 9.526748437794135 -0.29434925109255095 -4.68287455842548 -2.0354420542467597 11.663851462385388" Properties=species:S:1:pos:R:3 unique_starting_index=18 config_type=initial n_minim_iter=5 stress="0.00040325533549276274 -1.712566305429177e-05 -1.1893534203784977e-05 -1.712566305429177e-05 0.0001715486886159684 -1.175825754420076e-05 -1.1893534203784977e-05 -1.175825754420076e-05 -9.966697901823075e-05" pbc="T T T"
Si      -1.19898771       7.97966981       1.33822895
Si      -1.09195666       1.09549861       6.99951118
Si      -4.34492465      -1.79725344      10.23154469
Si       0.80836621      -1.01388699       9.36887321
Si      -5.75803569       2.77558753      10.87363175
Si       3.71732812       2.03273458       0.61413556
Si       2.27881155       0.16889942      -0.08764858
Si      -2.95561699       2.43321982      10.02718717
Si      -1.40601005      -2.02557854       9.40544068
Si      -3.06801941       2.36501612       7.62246780
Si       1.48602485      -0.46810725       3.33888713
Si      -4.16843722       3.43190743       5.50101115
Si      -3.11089516      -0.04183331       6.77231783
Si      -2.00675448       5.66005406       1.17016891
Si      -0.10192379       2.46988031       5.36079849
Si       0.61293036       6.40752120      -1.06276407
Si      -0.75819787      -0.01590501       2.71073466
Si       2.45135528      -3.60533367       6.23736690
Si      -0.13461595       2.20087912       1.91331090
Si      -4.59475563       5.34585191       8.59472023
Si      -1.93388895       3.89604392       4.73226042
Si      -3.48447944       0.21047886       9.17312535
22
Lattice="5.778331761738284 -1.5634325254925316 -1.791171453974842 -3.9221147355693797 9.526216079141056 -0.29385719898417356 -4.677551555667219 -2.0344563790021306 11.668671632733156" Properties=species:S:1:pos:R:3 unique_starting_index=18 config_type=initial n_minim_iter=6 stress="-0.00013054435361187808 1.0627647715288555e-05 0.00010252610182277727 1.0627647715288555e-05 4.76659190610515e-05 8.23021952855231e-05 0.00010252610182277727 8.23021952855231e-05 0.00017938187990656931" pbc="T T T"
Si      -1.19653774       7.97974594       1.34019256
Si      -1.08982937       1.09627107       7.00283761
Si      -4.34005729      -1.79650885      10.23578393
Si       0.80876269      -1.01264128       9.37407867
Si      -5.75120670       2.77639114      10.87845193
Si       3.71427769       2.03300892       0.61578459
Si       2.27721078       0.16879682      -0.08754024
Si      -2.95055119       2.43459084      10.03184956
Si      -1.40385342      -2.02473855       9.40956697
Si      -3.06390409       2.36578163       7.62597688
Si       1.48510731      -0.46736660       3.34068231
Si      -4.16379610       3.43211602       5.50361330
Si      -3.10716089      -0.04109837       6.77528120
Si      -2.00412425       5.65998880       1.17158545
Si      -0.10106590       2.47086770       5.36371504
Si       0.61352092       6.40708598      -1.06281325
Si      -0.75712672      -0.01597914       2.71166536
Si       2.44963685      -3.60374731       6.24037472
Si      -0.13423443       2.20108766       1.91470638
Si      -4.58895433       5.34685193       8.59870424
Si      -1.93100426       3.89668120       4.73496164
Si      -3.47966401       0.21124635       9.17763873
22
Lattice="5.776921664853737 -1.5582584466476204 -1.791688458542644 -3.9150784580106004 9.523959092947416 -0.2999004020243184 -4.683054700373637 -2.047122641570735 11.667532636748371" Properties=species:S:1:pos:R:3 unique_starting_index=18 config_type=initial n_minim_iter=7 stress="-0.000517121534602175 0.00033156446433478754 -0.0002287403385097063 0.00033156446433478754 -0.00019948250920118676 -0.00047184578353851573 -0.0002287403385097063 -0.00047184578353851573 -0.0003243716014414685" pbc="T T T"
Si      -1.18996959       7.97772632       1.33555815
Si      -1.09189794       1.08971226       6.99853860
Si      -4.34346894      -1.80748064      10.23482129
Si       0.80114310      -1.02070020       9.37266300
Si      -5.75225080       2.76398659      10.87458160
Si       3.71080462       2.03326108       0.61367413
Si       2.27751755       0.16730869      -0.08974278
Si      -2.94771603       2.42596024      10.02454526
Si      -1.41128441      -2.03438489       9.40676167
Si      -3.06411271       2.35813724       7.62137869
Si       1.48231453      -0.46929491       3.33951160
Si      -4.16319197       3.42513856       5.50090150
Si      -3.10936028      -0.04653567       6.77313908
Si      -1.99904434       5.65721986       1.16932575
Si      -0.10349079       2.46846204       5.35930977
Si       0.62017179       6.40697392      -1.07098347
Si      -0.75897281      -0.02117426       2.70844935
Si       2.44146149      -3.60550908       6.23960012
Si      -0.13590590       2.19902232       1.91363618
Si      -4.58965422       5.33673155       8.58984874
Si      -1.93035594       3.89348204       4.73179210
Si      -3.47970940       0.20178219       9.17889009
22
Lattice="5.782062191325593 -1.5642459008431417 -1.7933088549533285 -3.925862009406837 9.521309623270804 -0.28951980951622697 -4.6854127540584996 -2.029707819498897 11.661867853019864" Properties=species:S:1:pos:R:3 unique_starting_index=18 config_type=initial n_minim_iter=8 stress="-0.00039784696545095474 -0.00012929007436034642 -0.0004027190358663851 -0.00012929007436034642 -0.0005659438738126526 6.475432991819323e-05 -0.0004027190358663851 6.475432991819323e-05 -0.0005610902185665539" pbc="T T T"
Si      -1.19555353       7.97496925       1.34579769
Si      -1.09394901       1.09724690       6.99618965
Si      -4.34407343      -1.79145972      10.22972946
Si       0.79817270      -1.01210281       9.37056752
Si      -5.75820700       2.77898949      10.87496430
Si       3.70651638       2.02761277       0.61664802
Si       2.27953667       0.16122685      -0.09079611
Si      -2.94623502       2.43916403      10.02069626
Si      -1.41416384      -2.02307527       9.39995399
Si      -3.06766461       2.36808386       7.62052014
Si       1.48254622      -0.46695233       3.33854291
Si      -4.16942265       3.43275057       5.50377216
Si      -3.11193728      -0.03407978       6.77012574
Si      -2.00323402       5.65593362       1.17763339
Si      -0.10817711       2.47506871       5.35993228
Si       0.61744984       6.39987414      -1.06793243
Si      -0.76077754      -0.02061343       2.70446205
Si       2.44232182      -3.59664487       6.23331940
Si      -0.14090229       2.19911410       1.91730453
Si      -4.59963132       5.34582039       8.58936392
Si      -1.93602664       3.90019455       4.73599436
Si      -3.47917707       0.21485255       9.18123993
22
Lattice="5.781097828993903 -1.5641856167582953 -1.7898170260017765 -3.9249965686885475 9.52554059014547 -0.29227490590633876 -4.678686799393965 -2.0316974336957685 11.660108620605886" Properties=species:S:1:pos:R:3 unique_starting_index=18 config_type=initial n_minim_iter=9 stress="-0.00010163818947642166 -0.00011817973929060623 -5.965443653144512e-05 -0.00011817973929060623 3.354749172187041e-05 5.293987982034658e-06 -5.965443653144512e-05 5.293987982034658e-06 -0.0001492524456872408" pbc="T T T"
Si      -1.19251906       7.97819182       1.34611784
Si      -1.08896972       1.09761012       6.99603639
Si      -4.33788401      -1.79296864      10.22815629
Si       0.80221844      -1.01332086       9.37274976
Si      -5.75069829       2.77947465      10.87288587
Si       3.70497531       2.02820801       0.61937920
Si       2.27981115       0.15928341      -0.08948761
Si      -2.93591632       2.44057530      10.01789274
Si      -1.41002905      -2.02480404       9.39882592
Si      -3.06188075       2.36903294       7.61856510
Si       1.48422831      -0.46700882       3.34011389
Si      -4.16600547       3.43407551       5.50218522
Si      -3.10811876      -0.03325325       6.76854434
Si      -2.00036820       5.65788767       1.17753233
Si      -0.10522417       2.47726380       5.35989400
Si       0.61862970       6.40244057      -1.06999646
Si      -0.75953433      -0.02245216       2.70252442
Si       2.44445137      -3.59702787       6.23555261
Si      -0.14090842       2.19983337       1.91865836
Si      -4.59426223       5.34715019       8.58536326
Si      -1.93350639       3.90310757       4.73593307
Si      -3.47185273       0.21503178       9.18301407
22
Lattice="5.783257287310767 -1.557273174726095 -1.7888590752013114 -3.9177878780660595 9.51445028237154 -0.29122541033741023 -4.679469835027696 -2.0317459660071098 11.664890866459023" Properties=species:S:1:pos:R:3 unique_starting_index=18 config_type=initial n_minim_iter=10 stress="0.0005643181652802428 0.00042554662399748883 0.00015495319395265512 0.00042554662399748883 -9.64095256263911e-05 0.00015283787569662466 0.00015495319395265512 0.00015283787569662466 0.0006053899464770329" pbc="T T T"
Si      -1.18255634       7.97042606       1.35063691
Si      -1.08428982       1.09824560       7.00078149
Si      -4.33903936      -1.79295853      10.23271961
Si       0.80336975      -1.00954904       9.37963206
Si      -5.74613487       2.77476578      10.87897994
Si       3.70690422       2.02972951       0.62249764
Si       2.28175040       0.15797446      -0.08816038
Si      -2.92489688       2.44029659      10.02097685
Si      -1.41097668      -2.02234779       9.40147034
Si      -3.05681800       2.36696918       7.62158680
Si       1.48557442      -0.46349128       3.34302067
Si      -4.16375266       3.42925417       5.50594183
Si      -3.10811389      -0.03246157       6.77172984
Si      -1.99263958       5.65127078       1.18091682
Si      -0.10127533       2.47844575       5.36298794
Si       0.62673776       6.39713059      -1.07185909
Si      -0.75911766      -0.02485497       2.70135087
Si       2.44341051      -3.58775147       6.23945246
Si      -0.13995521       2.19817721       1.92259278
Si      -4.58829299       5.34064387       8.58825588
Si      -1.93038400       3.90173658       4.74030458
Si      -3.46795692       0.21562784       9.19223718
22
Lattice="5.7813074255167 -1.5611245784221575 -1.7846884507571885 -3.92143445433595 9.525969867400862 -0.29613707128798933 -4.671175470878121 -2.0352375706396533 11.658046457962307" Properties=species:S:1:pos:R:3 unique_starting_index=18 config_type=initial n_minim_iter=11 stress="0.0003306344415626564 -6.4780778444941e-06 0.0004362741536422109 -6.4780778444941e-06 0.000621153624393345 -7.103665381092177e-05 0.0004362741536422109 -7.103665381092177e-05 0.0005025714598242779" pbc="T T T"
Si      -1.18412872       7.97675567       1.34851102
Si      -1.07950978       1.09801631       6.99769920
Si      -4.33269390      -1.79576324      10.22738368
Si       0.80560010      -1.01505902       9.37675392
Si      -5.73883781       2.77711535      10.87107405
Si       3.70138237       2.02833084       0.62373040
Si       2.28054280       0.15320720      -0.08651814
Si      -2.91349000       2.44249840      10.01125760
Si      -1.40643783      -2.02677585       9.39502774
Si      -3.05162177       2.36899288       7.61451000
Si       1.48596826      -0.46507148       3.34226379
Si      -4.16225188       3.43346931       5.50140656
Si      -3.10414574      -0.03107308       6.76809711
Si      -1.99134423       5.65676765       1.17907995
Si      -0.10082202       2.48017973       5.35829334
Si       0.62331574       6.40226540      -1.07663612
Si      -0.75738122      -0.02796806       2.69725788
Si       2.44592246      -3.59236112       6.23902336
Si      -0.14223156       2.19913309       1.92301324
Si      -4.58466026       5.34514634       8.57825995
Si      -1.93181951       3.90699183       4.73650470
Si      -3.46037933       0.21668726       9.19124497
22
Lattice="5.784233391986908 -1.5615267034379603 -1.7891030261334748 -3.9234778774733083 9.523336238410273 -0.29261423263171754 -4.6832704886371594 -2.034455615728366 11.654253338484741" Properties=species:S:1:pos:R:3 unique_starting_index=18 config_type=initial n_minim_iter=12 stress="-0.0003768760510174058 -0.0002674438257840755 -9.586083802875791e-05 -0.0002674438257840755 9.927695093046872e-06 -3.313440326989431e-05 -9.586083802875791e-05 -3.313440326989431e-05 -0.00039376752942784987" pbc="T T T"
Si      -1.18667183       7.97044652       1.34929531
Si      -1.08441476       1.09813216       6.99626558
Si      -4.34632528      -1.79494675      10.22615310
Si       0.79393402      -1.01677918       9.36825523
Si      -5.74861515       2.77636844      10.86918883
Si       3.69782213       2.02554483       0.61865858
Si       2.27885276       0.14870658      -0.08721428
Si      -2.91650545       2.44406462      10.00333216
Si      -1.41595923      -2.02574024       9.38746279
Si      -3.05793054       2.36884419       7.60955813
Si       1.48187628      -0.46379175       3.33704425
Si      -4.17092089       3.43305432       5.50255286
Si      -3.11198877      -0.02871796       6.76992916
Si      -1.98974723       5.65442172       1.18049409
Si      -0.10744979       2.47838210       5.35178408
Si       0.62182914       6.39813271      -1.07988309
Si      -0.75878934      -0.03034465       2.69397074
Si       2.44053829      -3.58964524       6.23226546
Si      -0.14634392       2.19709459       1.92317932
Si      -4.59307488       5.34367020       8.57478666
Si      -1.94241292       3.90701281       4.73370413
Si      -3.47058949       0.22040472       9.19287036
22
Lattice="5.789047423259242 -1.5537976270991591 -1.7903367352831874 -3.916638931748477 9.510527378782829 -0.29015275883332586 -4.69133770142253 -2.035247174331784 11.65830309402481" Properties=species:S:1:pos:R:3 unique_starting_index=18 config_type=initial n_minim_iter=13 stress="0.00022618054870907065 0.0002513083268926774 -1.850358572196646e-05 0.0002513083268926774 -0.00018671593432640493 1.3409947347706622e-05 -1.850358572196646e-05 1.3409947347706622e-05 0.00024740210017681647" pbc="T T T"
Si      -1.17609138       7.95940195       1.35466492
Si      -1.08275436       1.09841398       7.00017081
Si      -4.35412763      -1.79506018      10.23090477
Si       0.78876685      -1.01437753       9.37282818
Si      -5.74857591       2.76992369      10.87557945
Si       3.69853885       2.02563399       0.61980307
Si       2.28008330       0.14503354      -0.08733500
Si      -2.90515868       2.44589183      10.00257977
Si      -1.42231142      -2.02367051       9.38858351
Si      -3.05553539       2.36664487       7.61021279
Si       1.48232288      -0.45994397       3.33751164
Si      -4.17340542       3.42720633       5.50704595
Si      -3.11594874      -0.02595512       6.77545082
Si      -1.98005843       5.64609681       1.18497257
Si      -0.10731192       2.47893798       5.35291994
Si       0.63089685       6.38979715      -1.08319825
Si      -0.75967701      -0.03453063       2.69117456
Si       2.43651196      -3.57872411       6.23398305
Si      -0.14740853       2.19409573       1.92660673
Si      -4.59280306       5.33585153       8.57520908
Si      -1.94460850       3.90537216       4.73685446
Si      -3.47306123       0.22225195       9.20436505
22
Lattice="5.796796005033384 -1.5532965227466704 -1.795568484448168 -3.9191323741698088 9.506170372114795 -0.28094520968275705 -4.708273000589721 -2.0289541115862693 11.65300458648107" Properties=species:S:1:pos:R:3 unique_starting_index=18 config_type=initial n_minim_iter=14 stress="-0.0001492058619539259 0.00010742595227902836 -0.00015460925754793976 0.00010742595227902836 -0.00022443717346357404 8.28940121468549e-05 -0.00015460925754793976 8.28940121468549e-05 -0.00029200255557367607" pbc="T T T"
Si      -1.17343272       7.95061212       1.36257164
Si      -1.08909228       1.10256138       6.99821256
Si      -4.36979459      -1.78754078      10.22812752
Si       0.77286257      -1.01290024       9.36632894
Si      -5.75722784       2.77227709      10.87724146
Si       3.69464531       2.02052754       0.61655569
Si       2.27748933       0.13658192      -0.09088370
Si      -2.89663637       2.46210873       9.98957355
Si      -1.43450676      -2.01869046       9.38350971
Si      -3.05940557       2.37334623       7.60278991
Si       1.48247403      -0.45759296       3.32988503
Si      -4.18664940       3.42901948       5.50957989
Si      -3.12523111      -0.01319075       6.78257875
Si      -1.97284562       5.64133718       1.19148175
Si      -0.11810552       2.48098032       5.34916926
Si       0.63268711       6.37972084      -1.08260455
Si      -0.76272052      -0.03856884       2.68604669
Si       2.43063807      -3.57009901       6.22680869
Si      -0.15351012       2.19092812       1.92587509
Si      -4.60784555       5.33867469       8.56896438
Si      -1.96033304       3.90854357       4.73530630
Si      -3.49040762       0.23480928       9.21144642
22
Lattice="5.809393268875144 -1.5527785697560372 -1.8007335367090362 -3.9259930447006637 9.499390187271734 -0.27318436401177104 -4.726779923932604 -2.0222087661482107 11.654485543249933" Properties=species:S:1:pos:R:3 unique_starting_index=18 config_type=initial n_minim_iter=15 stress="-6.253623091377198e-05 -0.0001916206515588149 0.00011999196372063964 -0.0001916206515588149 0.00023351624563594384 1.8224438605882073e-05 0.00011999196372063964 1.8224438605882073e-05 -7.230674876213756e-05" pbc="T T T"
Si      -1.16828502       7.93665470       1.37307683
Si      -1.09348758       1.10673447       7.00247863
Si      -4.38903781      -1.77917888      10.23079313
Si       0.75335823      -1.01506518       9.36852401
Si      -5.76573184       2.77230953      10.88649212
Si       3.68819184       2.00977244       0.61371008
Si       2.27509401       0.12129714      -0.09421552
Si      -2.87239178       2.48530238       9.97362671
Si      -1.44781544      -2.01483467       9.38563284
Si      -3.05945650       2.38359884       7.59591531
Si       1.48602815      -0.45631379       3.32233822
Si      -4.20530928       3.43090550       5.51541444
Si      -3.13664671       0.00545730       6.79831388
Si      -1.96113537       5.63181709       1.19997233
Si      -0.13292126       2.48308509       5.34726717
Si       0.63506026       6.36535660      -1.08679834
Si      -0.76560164      -0.04698727       2.67995674
Si       2.42656124      -3.55882097       6.22587282
Si      -0.16344172       2.18480928       1.92664326
Si      -4.62605689       5.33998429       8.56374942
Si      -1.98260390       3.91300587       4.73661070
Si      -3.51105432       0.25478574       9.23209325
22
Lattice="5.831384573914441 -1.5506335189193747 -1.8157178959927807 -3.942218882347232 9.472084665857176 -0.2674767436083853 -4.7620668080201005 -2.014787787451695 11.69164404050749" Properties=species:S:1:pos:R:3 unique_starting_index=18 config_type=initial n_minim_iter=16 stress="0.00042055413324228067 -0.0002599908200416504 0.0005048384931105043 -0.0002599908200416504 0.0011426936484341857 -0.0005406459472900833 0.0005048384931105043 -0.0005406459472900833 0.0009456129606938899" pbc="T T T"
Si      -1.15922223       7.90541625       1.38406712
Si      -1.10634607       1.10443959       7.03060736
Si      -4.43001415      -1.77245990      10.25529853
Si       0.71006280      -1.03089525       9.40409460
Si      -5.79645174       2.75606563      10.92954873
Si       3.67859004       1.97903322       0.60498081
Si       2.27604959       0.09586672      -0.10014559
Si      -2.82928251       2.51898625       9.95992615
Si      -1.47719569      -2.01905376       9.42646439
Si      -3.06037969       2.40389352       7.60424076
Si       1.49571596      -0.46530942       3.31348375
Si      -4.24229513       3.42515069       5.53663767
Si      -3.16429055       0.02958688       6.84357472
Si      -1.94709643       5.59881322       1.21095755
Si      -0.16870686       2.47881037       5.35562613
Si       0.64250512       6.33874618      -1.10362802
Si      -0.76966599      -0.06343466       2.68399411
Si       2.41858019      -3.54534556       6.24592563
Si      -0.18352318       2.16773269       1.92728621
Si      -4.66144477       5.32492936       8.58459214
Si      -2.01859315       3.90907245       4.75254247
Si      -3.55764513       0.29477973       9.28964864
22
Lattice="5.841955142051705 -1.5470871995735016 -1.8297805343970628 -3.9471030598247014 9.434559028584752 -0.2485256775036185 -4.78907149007684 -1.99177491640263 11.707685651467218" Properties=species:S:1:pos:R:3 unique_starting_index=18 config_type=initial n_minim_iter=17 stress="-0.00013558559691744364 0.00023638233705816652 -0.00034160936012241067 0.00023638233705816652 -0.0008854850855165937 0.0003499703958209234 -0.00034160936012241067 0.0003499703958209234 -0.0004410489249687117" pbc="T T T"
Si      -1.15747693       7.87689561       1.39480968
Si      -1.11936889       1.10882243       7.04567153
Si      -4.45753029      -1.75376378      10.26275556
Si       0.68437863      -1.02230054       9.41406928
Si      -5.82655544       2.75724359      10.95378600
Si       3.68056755       1.96565598       0.60102936
Si       2.27768979       0.08907348      -0.10160444
Si      -2.82851204       2.53636251       9.96053212
Si      -1.50224569      -2.00519229       9.43992794
Si      -3.06960221       2.41902034       7.61410284
Si       1.49547381      -0.46488202       3.30795644
Si      -4.26273443       3.41969022       5.55382913
Si      -3.18803835       0.04003130       6.86144225
Si      -1.94688078       5.57224127       1.22127392
Si      -0.18358172       2.47706641       5.36117149
Si       0.64972755       6.31198323      -1.10172939
Si      -0.76989063      -0.06462704       2.69067976
Si       2.41067293      -3.52391723       6.24636722
Si      -0.19087201       2.15908943       1.93280540
Si      -4.68328270       5.30994230       8.61104668
Si      -2.03293117       3.90094149       4.76515509
Si      -3.58807183       0.32507500       9.31151519
22
Lattice="5.85566114532835 -1.5474776385251363 -1.8373368347454169 -3.9581399938147457 9.419532684789038 -0.2401873718556619 -4.810451291400907 -1.981534166791704 11.714298135294433" Properties=species:S:1:pos:R:3 unique_starting_index=18 config_type=initial n_minim_iter=18 stress="-0.00048457973453559604 0.00022036466452111383 -0.00044024285909708403 0.00022036466452111383 -0.0005612420170930716 0.0003095894369758595 -0.00044024285909708403 0.0003095894369758595 -0.0008114017371899786" pbc="T T T"
Si      -1.15589485       7.85634595       1.39988248
Si      -1.12925507       1.11023393       7.05393157
Si      -4.47586535      -1.74321770      10.26575560
Si       0.65774119      -1.02824685       9.41993461
Si      -5.84269273       2.76112096      10.96611151
Si       3.67613444       1.95331051       0.60393102
Si       2.27200786       0.07098562      -0.10358376
Si      -2.80113825       2.56641650       9.94262820
Si      -1.52680753      -2.00615143       9.44331209
Si      -3.06908500       2.43858895       7.60495093
Si       1.49657945      -0.46660566       3.30000403
Si      -4.28692858       3.41844825       5.56419297
Si      -3.21031274       0.05414703       6.88347005
Si      -1.93978250       5.55839118       1.22784048
Si      -0.19654361       2.47618948       5.35895841
Si       0.65541341       6.28277106      -1.10735635
Si      -0.76380990      -0.07622003       2.68911959
Si       2.40605489      -3.50937262       6.24756634
Si      -0.20177213       2.15192444       1.94044625
Si      -4.70832332       5.29984273       8.61389578
Si      -2.05672203       3.90056653       4.76466035
Si      -3.61658958       0.35799434       9.33787012
22
Lattice="5.850154019417844 -1.5533152049825711 -1.8331379301939825 -3.9643848946941143 9.427605791911475 -0.24770336666549259 -4.79467813229189 -1.9827977800645882 11.71795754171943" Properties=species:S:1:pos:R:3 unique_starting_index=18 config_type=initial n_minim_iter=19 stress="-0.00044100468072706564 0.00013406444601911764 -0.00023257264286083104 0.00013406444601911764 -0.00019310347924136282 0.00015186576117167137 -0.00023257264286083104 0.00015186576117167137 -0.0004686137850577361" pbc="T T T"
Si      -1.16668968       7.86586562       1.38894677
Si      -1.12916119       1.10650662       7.05403304
Si      -4.45748340      -1.74536096      10.26586647
Si       0.67203156      -1.03120094       9.42360469
Si      -5.83849746       2.76665303      10.96318569
Si       3.68254511       1.95713122       0.60956473
Si       2.27058721       0.07840724      -0.10115284
Si      -2.81299415       2.56079095       9.95327435
Si      -1.51737898      -2.01269258       9.44844107
Si      -3.06718410       2.44077056       7.60788282
Si       1.49764772      -0.47189399       3.30565435
Si      -4.27920186       3.41999454       5.56116283
Si      -3.20581425       0.04408379       6.88026440
Si      -1.95356864       5.56630115       1.21963505
Si      -0.18636842       2.47257522       5.36266369
Si       0.64956813       6.28541705      -1.10241009
Si      -0.75684327      -0.07201538       2.69695704
Si       2.41521282      -3.52098894       6.25319410
Si      -0.19583993       2.15609584       1.94149060
Si      -4.70312927       5.29916721       8.62106272
Si      -2.04575173       3.89708796       4.76191390
Si      -3.60865795       0.35560172       9.32793414
22
Lattice="5.8626374059136195 -1.5572099594997175 -1.8382809890313134 -3.981786855046835 9.415190147586916 -0.24583207209957475 -4.8058477696624715 -1.9733751220195073 11.735367468290143" Properties=species:S:1:pos:R:3 unique_starting_index=18 config_type=initial n_minim_iter=20 stress="0.000154900916742879 -0.00012730414169590903 0.0001401114371468054 -0.00012730414169590903 0.00017242767927841686 -0.00012906627747219908 0.0001401114371468054 -0.00012906627747219908 0.0001843432950947758" pbc="T T T"
Si      -1.17117663       7.85146653       1.38993063
Si      -1.13819752       1.10507506       7.06616762
Si      -4.46837242      -1.73698078      10.27607323
Si       0.65721729      -1.03734889       9.44113183
Si      -5.85506080       2.76671471      10.98179684
Si       3.68309619       1.94297063       0.61059418
Si       2.26999628       0.06791365      -0.10297969
Si      -2.79596126       2.58002698       9.94888284
Si      -1.52894264      -2.01589044       9.46780364
Si      -3.06717954       2.45651465       7.61001404
Si       1.50463045      -0.47892181       3.30418625
Si      -4.29722384       3.41935269       5.57046895
Si      -3.22132831       0.05531355       6.90195657
Si      -1.95666379       5.55390049       1.22210829
Si      -0.19797145       2.46834317       5.36838784
Si       0.64984750       6.26634066      -1.10476407
Si      -0.75394904      -0.07877351       2.70169594
Si       2.41786617      -3.51748042       6.26330367
Si      -0.20362643       2.15033265       1.94514938
Si      -4.72304461       5.29183510       8.63492057
Si      -2.06084842       3.89366212       4.76816130
Si      -3.63113280       0.38167848       9.35179098
22
Lattice="5.873882110771371 -1.5647494549146352 -1.8419351466398186 -4.001828249226793 9.410671550886814 -0.24243391294826283 -4.812562538001458 -1.9608152161447847 11.747326338109476" Properties=species:S:1:pos:R:3 unique_starting_index=18 config_type=initial n_minim_iter=21 stress="0.0008339942181519778 -0.0001793047425146846 0.0004394322356821306 -0.0001793047425146846 0.0006026858294798003 -0.00039968779683067547 0.0004394322356821306 -0.00039968779683067547 0.0011199362508074629" pbc="T T T"
Si      -1.18132802       7.84532236       1.38681517
Si      -1.15587452       1.10364615       7.06908970
Si      -4.47410924      -1.72584565      10.28401021
Si       0.64439343      -1.03595610       9.45239561
Si      -5.87461534       2.77161741      10.99388509
Si       3.69056801       1.93522566       0.61227432
Si       2.26992719       0.06522488      -0.10578680
Si      -2.78592876       2.59935458       9.94297945
Si      -1.53710586      -2.02545333       9.48171643
Si      -3.06487326       2.47865559       7.60650497
Si       1.51518072      -0.48978759       3.30735083
Si      -4.30667440       3.42201326       5.57582513
Si      -3.24080414       0.07093712       6.92168936
Si      -1.96932350       5.55389473       1.22208481
Si      -0.20174192       2.46051886       5.37383580
Si       0.65107275       6.25081223      -1.09330130
Si      -0.75163431      -0.08519505       2.70528010
Si       2.41805470      -3.52425873       6.26504084
Si      -0.20776367       2.15282788       1.95252140
Si      -4.73675644       5.29072546       8.65445012
Si      -2.06743364       3.89093990       4.77732169
Si      -3.65360584       0.41513916       9.36673990
