18
Lattice="7.670014681748119 -0.8044531788820275 0.5662004886946237 -4.4149310833630295 6.323341969591704 -0.5662004886947722 -2.050631012305129 -2.5099030817889534 8.809547760244213" Properties=species:S:1:pos:R:3 unique_starting_index=64 config_type=initial n_minim_iter=1 energy=-2932.076258548747 free_energy=-2932.076258548747 pbc="T T T"
Si       0.29427315       3.02497170       5.28240468
Si       2.35533924      -0.86835249       1.16073104
Si      -1.36165256       0.30240861       3.32643522
Si       1.88624001      -0.61181438       8.01430935
Si       6.79209902      -3.24161147       6.82420010
Si       6.56849357       2.80019234       2.13632598
Si      -3.32893652       3.62691709       4.33265467
Si       0.07555793       2.01133216       0.21098104
Si      -2.55605303       2.18678172       2.65510944
Si      -0.34077685      -0.47820889       7.34298357
Si      -2.72216921       1.99386672       5.98269846
Si       1.79831703       2.27040971       1.86102482
Si       0.64202101       3.83951532       3.13970623
Si      -4.65483836       2.24665683       7.26137987
Si       3.75811832       1.07158700       1.32701144
Si      -0.72480864       0.85872455       5.44868507
Si      -1.67231137       4.16806359       5.89900818
Si       0.40347065       0.29968977       1.77733455
18
Lattice="7.678118759709762 -0.7966790767134077 0.5749624879296913 -4.412048345021766 6.334195658540269 -0.5749624879298406 -2.048456666086629 -2.523739478603254 8.832950306859843" Properties=species:S:1:pos:R:3 unique_starting_index=64 config_type=initial n_minim_iter=2 stress="0.0017105225979434614 -0.00012059787977923 0.0003813287591319904 -0.00012059787977923 0.0015771823685129447 -0.00022491067251320188 0.0003813287591319904 -0.00022491067251320188 0.0016893467406498568" pbc="T T T"
Si       0.30260891       3.03011379       5.29495464
Si       2.35783691      -0.86733028       1.16596073
Si      -1.35946702       0.29936675       3.33346649
Si       1.89509876      -0.61528653       8.03742289
Si       6.80227183      -3.24529598       6.85051629
Si       6.58248753       2.81473100       2.14655989
Si      -3.32379687       3.62982626       4.33953933
Si       0.07846345       2.01623185       0.21054542
Si      -2.55366745       2.18784815       2.65793547
Si      -0.33541675      -0.48384378       7.36189187
Si      -2.71755563       1.99246033       5.99655295
Si       1.80474487       2.27785775       1.86755904
Si       0.65035986       3.84824385       3.14685659
Si      -4.65042085       2.24295846       7.27585050
Si       3.76427280       1.07789129       1.33414978
Si      -0.71932635       0.85811075       5.46314369
Si      -1.66417269       4.17349846       5.91145572
Si       0.40561674       0.30074282       1.78246181
18
Lattice="7.629381596669174 -0.7559817211141706 0.5823305766595118 -4.352851350987274 6.31123260753881 -0.5823305766596616 -2.041786271679973 -2.539625526381272 8.830766353682407" Properties=species:S:1:pos:R:3 unique_starting_index=64 config_type=initial n_minim_iter=3 stress="-0.005057700084275599 0.003951121131810965 0.0022580528551120953 0.003951121131810965 -0.0006891042251605452 -0.0013318171631461657 0.0022580528551120953 -0.0013318171631461657 -0.0005796554718081339" pbc="T T T"
Si       0.31675372       3.02609817       5.28839557
Si       2.34049101      -0.84947483       1.16417768
Si      -1.34397119       0.28798267       3.32693295
Si       1.89152554      -0.61093449       8.03348142
Si       6.75717754      -3.21815507       6.85808659
Si       6.56841042       2.84639344       2.15153812
Si      -3.27834300       3.61090285       4.33436410
Si       0.08931228       2.01389928       0.21014621
Si      -2.52408841       2.17456402       2.64538854
Si      -0.33051338      -0.49089764       7.35193701
Si      -2.68729154       1.97702157       6.00024421
Si       1.80519494       2.28713285       1.87602632
Si       0.66787478       3.84673592       3.14567923
Si      -4.60246349       2.21780212       7.26989712
Si       3.74356199       1.09112337       1.34271745
Si      -0.70276332       0.85927686       5.46693534
Si      -1.63329031       4.16022429       5.90698144
Si       0.40447158       0.30842955       1.78276356
18
Lattice="7.65217216992334 -0.7693966107150025 0.5456585728519138 -4.375618147647416 6.324687809584559 -0.5456585728520638 -2.083498128396352 -2.5150507164062677 8.837073456792632" Properties=species:S:1:pos:R:3 unique_starting_index=64 config_type=initial n_minim_iter=4 stress="-0.0010467120301365217 0.0007748468222952321 -0.001175062664016861 0.0007748468222952321 -0.00018999503604703782 0.000693061112439022 -0.001175062664016861 0.000693061112439022 0.0001600195025404309" pbc="T T T"
Si       0.27980908       3.03748994       5.28994646
Si       2.34489798      -0.84164847       1.14423901
Si      -1.35892843       0.29502451       3.32842514
Si       1.86866551      -0.59567141       8.01979115
Si       6.76299107      -3.22507211       6.82271257
Si       6.58676110       2.83911257       2.13134655
Si      -3.31016889       3.63428615       4.36206249
Si       0.08570121       2.01144415       0.21635504
Si      -2.54706109       2.19202444       2.64853827
Si      -0.36636945      -0.47366041       7.33990429
Si      -2.72984314       2.00510087       6.03540077
Si       1.79228477       2.29179251       1.88969333
Si       0.64481812       3.85299605       3.15668085
Si      -4.65132485       2.25398697       7.30238829
Si       3.73786181       1.07766419       1.33869074
Si      -0.72596957       0.88981244       5.48439818
Si      -1.68524399       4.18076840       5.92878421
Si       0.39360705       0.32496327       1.78307676
18
Lattice="7.6680995334840825 -0.784740001395972 0.5668691437465134 -4.396752155100352 6.331203504218621 -0.5668691437466633 -2.058192603912272 -2.5240268042795124 8.821867232661207" Properties=species:S:1:pos:R:3 unique_starting_index=64 config_type=initial n_minim_iter=5 stress="-0.00010199279872877945 -0.0005652586445946136 0.0008321197499281882 -0.0005652586445946136 -0.0007269765670628581 -0.0004907907103406547 0.0008321197499281882 -0.0004907907103406547 -0.0002967601950921945" pbc="T T T"
Si       0.28806409       3.02639806       5.27726133
Si       2.35391010      -0.84669017       1.14976229
Si      -1.35202640       0.29131083       3.31924958
Si       1.89587137      -0.61207483       8.01361777
Si       6.79977892      -3.24908399       6.83453598
Si       6.59975111       2.82186647       2.14016780
Si      -3.31023593       3.63178864       4.33967404
Si       0.08316544       2.00952751       0.21217500
Si      -2.54750299       2.19279462       2.63181459
Si      -0.34664085      -0.48580604       7.32618277
Si      -2.72209947       2.00101916       6.01903362
Si       1.79491441       2.28380665       1.89153457
Si       0.64698081       3.84494136       3.14846235
Si      -4.64374685       2.25034722       7.27596139
Si       3.74332520       1.06627628       1.34483081
Si      -0.71387750       0.88489671       5.47232986
Si      -1.68198924       4.17181124       5.90869711
Si       0.39833171       0.32326481       1.78119807
18
Lattice="7.699733802920141 -0.7759453309965939 0.5536489558068489 -4.404360603401755 6.363143835222412 -0.5536489558069996 -2.0823926531566483 -2.5372062356571283 8.771716509761918" Properties=species:S:1:pos:R:3 unique_starting_index=64 config_type=initial n_minim_iter=6 stress="0.003838891843599164 0.0002312098165367846 -0.00012092532646748369 0.0002312098165367846 0.004094531246547002 7.13226995034341e-05 -0.00012092532646748369 7.13226995034341e-05 -0.0019541385451801252" pbc="T T T"
Si       0.29017461       3.04791790       5.25245549
Si       2.36401488      -0.84796189       1.14342172
Si      -1.35993230       0.28997123       3.30865388
Si       1.89693584      -0.60670010       7.97133661
Si       6.81123848      -3.26326493       6.76983328
Si       6.63801488       2.86162582       2.10715055
Si      -3.31845735       3.64707034       4.31242575
Si       0.09373086       2.02031610       0.20339198
Si      -2.54971048       2.20821249       2.61105181
Si      -0.35748499      -0.49352596       7.27373454
Si      -2.73568907       2.02123407       6.01269612
Si       1.79856522       2.29690652       1.90366234
Si       0.65377161       3.87771636       3.13991026
Si      -4.67303630       2.25829491       7.24894403
Si       3.74302129       1.07546173       1.32412880
Si      -0.72595469       0.91046654       5.43316257
Si      -1.69783292       4.19215483       5.88105435
Si       0.40077933       0.33827512       1.77202058
18
Lattice="7.686178888357813 -0.7791085539307923 0.54990760958062 -4.400570828882658 6.349750579560776 -0.5499076095807702 -2.0843116113531064 -2.5249164020353905 8.82007566293496" Properties=species:S:1:pos:R:3 unique_starting_index=64 config_type=initial n_minim_iter=7 stress="0.002711736679405405 -0.0008785217080669122 -0.00022809189260651746 -0.0008785217080669122 0.0017403905303075536 0.00013453037499106075 -0.00022809189260651746 0.00013453037499106075 0.002739699317534321" pbc="T T T"
Si       0.28346485       3.04110470       5.28555417
Si       2.36091329      -0.84651990       1.15047014
Si      -1.35990895       0.28963558       3.33144218
Si       1.88950395      -0.60199484       8.01643382
Si       6.79340345      -3.26357327       6.78944655
Si       6.62762760       2.85626387       2.10445491
Si      -3.31509797       3.63848282       4.33387468
Si       0.09705373       2.01380436       0.19879065
Si      -2.54234541       2.20835520       2.62020997
Si      -0.36178346      -0.49547737       7.30520161
Si      -2.73542629       2.02703225       6.06604526
Si       1.78779999       2.28614474       1.93096123
Si       0.64797456       3.87323112       3.16324835
Si      -4.67586285       2.25670839       7.29833237
Si       3.72231090       1.06682536       1.32369081
Si      -0.73236365       0.92394009       5.45877483
Si      -1.70853944       4.18013146       5.91792701
Si       0.40030381       0.34573573       1.78284299
18
Lattice="7.661095378903551 -0.759519468628814 0.5442921035456605 -4.371291207179126 6.337275866641907 -0.5442921035458109 -2.087432844514378 -2.527870110440658 8.774798471810417" Properties=species:S:1:pos:R:3 unique_starting_index=64 config_type=initial n_minim_iter=8 stress="-0.0028707105075430096 0.000766817887455733 8.886177587961026e-05 0.000766817887455733 -0.002022870784062118 -5.2411367606806246e-05 8.886177587961026e-05 -5.2411367606806246e-05 -0.001961751919068762" pbc="T T T"
Si       0.28213436       3.04333770       5.26079065
Si       2.34733419      -0.83516446       1.14553746
Si      -1.35468734       0.28655160       3.31309201
Si       1.88062689      -0.59675485       7.97263729
Si       6.76710035      -3.25580224       6.74020079
Si       6.62639919       2.87432041       2.08065550
Si      -3.29299049       3.62317745       4.30438547
Si       0.11016339       2.01313303       0.18913228
Si      -2.52029414       2.20442857       2.58915194
Si      -0.36178055      -0.50455848       7.24869723
Si      -2.72187343       2.03092190       6.06321375
Si       1.77997189       2.28367323       1.94796057
Si       0.65278442       3.88074805       3.15258974
Si      -4.66493708       2.24470510       7.26784292
Si       3.69973318       1.07146817       1.31737466
Si      -0.73217318       0.93729609       5.43262784
Si      -1.70173367       4.16996227       5.89391489
Si       0.40151518       0.35597099       1.77866170
18
Lattice="7.701373152893926 -0.7771694754908113 0.5387029832225031 -4.406225084325248 6.363986277484647 -0.5387029832226539 -2.095903121625897 -2.5289804130036937 8.733366672738747" Properties=species:S:1:pos:R:3 unique_starting_index=64 config_type=initial n_minim_iter=9 stress="7.6127440382486e-06 0.000167426865829455 0.00041059447007377355 0.000167426865829455 0.00019272990151483174 -0.00024217181679362857 0.00041059447007377355 -0.00024217181679362857 -0.00026467329955342166" pbc="T T T"
Si       0.26382644       3.06919962       5.24968879
Si       2.34021697      -0.83992431       1.15235694
Si      -1.36834836       0.30356590       3.29146581
Si       1.87503081      -0.60241115       7.92750064
Si       6.81307123      -3.28893245       6.68300482
Si       6.66707543       2.86855775       2.04697000
Si      -3.31487007       3.61830904       4.26528520
Si       0.12821233       2.02636691       0.16795336
Si      -2.51675499       2.21302754       2.54985324
Si      -0.35169003      -0.52119632       7.18588807
Si      -2.73035182       2.06068157       6.07671450
Si       1.77419920       2.26842509       1.97938266
Si       0.64289751       3.91597437       3.14092446
Si      -4.71957963       2.25364489       7.23825630
Si       3.70749444       1.07680480       1.31458292
Si      -0.75211871       0.94525198       5.41191476
Si      -1.71380244       4.17989520       5.88359851
Si       0.41135713       0.35345759       1.78626666
18
Lattice="7.717255313475313 -0.7851252814694027 0.5247204830959827 -4.420871843649677 6.374036666272859 -0.5247204830961334 -2.111525244526747 -2.521177979274661 8.71626840573537" Properties=species:S:1:pos:R:3 unique_starting_index=64 config_type=initial n_minim_iter=10 stress="0.00024255839508724057 -0.0001708842692859582 -0.00039084135029490203 -0.0001708842692859582 5.36185255446513e-05 0.0002305212728792331 -0.00039084135029490203 0.0002305212728792331 0.0004380831459672047" pbc="T T T"
Si       0.24633258       3.08449304       5.24668974
Si       2.33412093      -0.83989260       1.15091578
Si      -1.37760491       0.31502572       3.27980792
Si       1.86065306      -0.59993128       7.90030236
Si       6.82503451      -3.30481377       6.63970581
Si       6.68786769       2.86794283       2.01921137
Si      -3.32364455       3.61409657       4.25570778
Si       0.14340583       2.02820501       0.15993382
Si      -2.51367343       2.21984215       2.53078286
Si      -0.35603303      -0.52726693       7.15127730
Si      -2.74315776       2.08275688       6.10342396
Si       1.76443597       2.26107287       2.00765000
Si       0.63004656       3.93282127       3.13694867
Si      -4.75505777       2.26671449       7.23272263
Si       3.69878905       1.07717856       1.31125347
Si      -0.77117439       0.96266352       5.40702743
Si      -1.73317790       4.18689629       5.88760741
Si       0.41160792       0.35914799       1.79183345
18
Lattice="7.73795563631051 -0.8057206493201159 0.5328273737508459 -4.448911462412738 6.382188495638698 -0.5328273737509963 -2.1001154631700993 -2.5195214009993534 8.706521227320525" Properties=species:S:1:pos:R:3 unique_starting_index=64 config_type=initial n_minim_iter=11 stress="-5.844002709846741e-05 0.00021320511729726706 -0.00016947118368124383 0.00021320511729726706 0.00017729230342095878 9.995542423790192e-05 -0.00016947118368124383 9.995542423790192e-05 0.00015189850916984537" pbc="T T T"
Si       0.25127168       3.08503611       5.23932840
Si       2.34068055      -0.85560387       1.15248147
Si      -1.37997135       0.32526576       3.26341133
Si       1.86660143      -0.61228397       7.88308563
Si       6.85448950      -3.32970059       6.63213722
Si       6.70050438       2.85123134       2.01246292
Si      -3.31887324       3.60427861       4.25689155
Si       0.15895191       2.01765346       0.17004462
Si      -2.51716014       2.22328799       2.52767264
Si      -0.34468059      -0.53535203       7.14734694
Si      -2.75101413       2.08316021       6.10714871
Si       1.76492721       2.25662740       2.02030179
Si       0.61519414       3.92257371       3.11759188
Si      -4.76525988       2.28335325       7.20443880
Si       3.69527445       1.07436080       1.31602133
Si      -0.78239337       0.96578511       5.40286826
Si      -1.74179166       4.19065536       5.88065678
Si       0.40879587       0.35374181       1.79380986
18
Lattice="7.758524883686459 -0.8296615171821025 0.5460423264477348 -4.479815539075211 6.388606995248273 -0.5460423264478849 -2.081525437270692 -2.5186769775480347 8.693134813474293" Properties=species:S:1:pos:R:3 unique_starting_index=64 config_type=initial n_minim_iter=12 stress="0.00016407834682322583 -0.000595151505418817 0.0005317160693990003 -0.000595151505418817 -0.000493956756475268 -0.00031361027955733396 0.0005317160693990003 -0.00031361027955733396 -0.0006240896037544893" pbc="T T T"
Si       0.25346632       3.08359532       5.22878699
Si       2.34399292      -0.86922011       1.15524074
Si      -1.38553752       0.32993278       3.25454472
Si       1.87940362      -0.62121886       7.87413329
Si       6.89269217      -3.35182868       6.62577365
Si       6.70843889       2.82252943       2.00618508
Si      -3.31922451       3.59245756       4.25185304
Si       0.17011699       2.01128748       0.17830679
Si      -2.52360130       2.22670136       2.51797422
Si      -0.33120459      -0.54291461       7.13756279
Si      -2.75079337       2.07995459       6.10040253
Si       1.76882907       2.24559249       2.02685629
Si       0.60439122       3.91656236       3.10224796
Si      -4.77655004       2.29058631       7.17579421
Si       3.69768040       1.07336869       1.32045751
Si      -0.79168550       0.95902978       5.39400375
Si      -1.73837586       4.18584073       5.86673712
Si       0.41565172       0.34068916       1.79319088
18
Lattice="7.75355138339946 -0.82094256408532 0.5369679701513094 -4.469778715653045 6.388472742497822 -0.5369679701514595 -2.0943652341247896 -2.5168895092335437 8.707782410233223" Properties=species:S:1:pos:R:3 unique_starting_index=64 config_type=initial n_minim_iter=13 stress="0.00015719780498654629 7.17723500734543e-05 -9.604357560809317e-05 7.17723500734543e-05 0.00023655360828176396 5.664724902893233e-05 -9.604357560809317e-05 5.664724902893233e-05 0.00045246858067379163" pbc="T T T"
Si       0.24681323       3.09111211       5.23251177
Si       2.33812872      -0.86356857       1.14710455
Si      -1.39244979       0.32668334       3.26356627
Si       1.86999649      -0.60834411       7.88594146
Si       6.88478291      -3.34253870       6.61481548
Si       6.71045191       2.82828818       1.99244029
Si      -3.31141839       3.58702514       4.27432823
Si       0.18258117       2.01054987       0.18892101
Si      -2.52514990       2.23192333       2.51726761
Si      -0.34543058      -0.53883261       7.13964280
Si      -2.75447604       2.08250754       6.12769379
Si       1.76874622       2.25104603       2.04228657
Si       0.60094393       3.92451779       3.10863973
Si      -4.78405007       2.29487323       7.19404695
Si       3.68741375       1.08309125       1.32220844
Si      -0.80403141       0.96842982       5.40761566
Si      -1.73637090       4.18940395       5.88158006
Si       0.41743649       0.34067628       1.79617284
18
Lattice="7.756747640805301 -0.8263532905954142 0.5378890979123495 -4.476060420881995 6.38865219217873 -0.5378890979124994 -2.091312519522826 -2.515164475090292 8.695620847029504" Properties=species:S:1:pos:R:3 unique_starting_index=64 config_type=initial n_minim_iter=14 stress="-0.0005154523061083147 -2.194920802460453e-05 9.099145660949869e-05 -2.194920802460453e-05 -0.0005397206633893095 -5.366746989052219e-05 9.099145660949869e-05 -5.366746989052219e-05 -0.0012254713118625424" pbc="T T T"
Si       0.24789181       3.08583985       5.22002951
Si       2.34333643      -0.86552957       1.14116363
Si      -1.39386064       0.32787508       3.25914077
Si       1.87139540      -0.60952880       7.87589574
Si       6.89305565      -3.34655720       6.59489601
Si       6.71176136       2.81960393       1.97814104
Si      -3.30763682       3.57750172       4.27337864
Si       0.19281713       2.00828009       0.19451277
Si      -2.52782100       2.23427667       2.50899671
Si      -0.34565799      -0.53947638       7.12575169
Si      -2.75602857       2.08342157       6.13145330
Si       1.76726692       2.24839464       2.05258742
Si       0.59304011       3.92224759       3.10048755
Si      -4.78904450       2.30122538       7.17935342
Si       3.68121143       1.08321564       1.32000743
Si      -0.81029828       0.97213432       5.39887331
Si      -1.73561321       4.19072666       5.87910725
Si       0.41671725       0.33580534       1.80024138
18
Lattice="7.7532116068645776 -0.8245115985527428 0.5348590172340069 -4.472737830205312 6.386448613996496 -0.5348590172341566 -2.095419947692253 -2.512497993641313 8.712547864765671" Properties=species:S:1:pos:R:3 unique_starting_index=64 config_type=initial n_minim_iter=15 stress="6.321870526691558e-05 -7.523728860188609e-06 1.8082526791132387e-05 -7.523728860188609e-06 5.4900020608086926e-05 -1.066521515608383e-05 1.8082526791132387e-05 -1.066521515608383e-05 0.00013375003886594713" pbc="T T T"
Si       0.24626297       3.08201266       5.22717174
Si       2.34618350      -0.86266478       1.13832732
Si      -1.39583081       0.32937026       3.26748594
Si       1.86531194      -0.60627388       7.89118938
Si       6.88801439      -3.33815018       6.59943094
Si       6.70557303       2.81733244       1.97572750
Si      -3.30981844       3.57468130       4.28541279
Si       0.19451566       2.01114155       0.19656836
Si      -2.53062078       2.23315176       2.51541025
Si      -0.34984982      -0.53422776       7.13911370
Si      -2.75719852       2.08515455       6.14615099
Si       1.76546992       2.24816770       2.05730657
Si       0.58883577       3.92351353       3.10585812
Si      -4.79268570       2.30434290       7.19470255
Si       3.68257869       1.08537657       1.32022423
Si      -0.81202709       0.96994274       5.40906866
Si      -1.73240509       4.19461538       5.89869833
Si       0.41515182       0.33070387       1.80985390
18
Lattice="7.74974192289912 -0.8200434704472414 0.5339319410547944 -4.467148767996143 6.3855738230447034 -0.5339319410549443 -2.097295250763072 -2.5138136067578083 8.714417527748632" Properties=species:S:1:pos:R:3 unique_starting_index=64 config_type=initial n_minim_iter=16 stress="0.00010987976727728596 -5.998617383778255e-05 -0.0001762756849472125 -5.998617383778255e-05 4.3555465417764785e-05 0.00010396877208903496 -0.0001762756849472125 0.00010396877208903496 0.0001253673974744879" pbc="T T T"
Si       0.24612660       3.07887908       5.22410951
Si       2.34806274      -0.85813747       1.13386671
Si      -1.39878784       0.32699281       3.26982015
Si       1.86328945      -0.60095947       7.89399488
Si       6.88323821      -3.33067235       6.59866186
Si       6.70150974       2.81991156       1.97448712
Si      -3.30619510       3.57399482       4.28856815
Si       0.19607229       2.01119453       0.19832535
Si      -2.52971428       2.23177961       2.51731500
Si      -0.35088287      -0.53278098       7.14148974
Si      -2.75374040       2.08781875       6.14895411
Si       1.76401421       2.24674414       2.05871132
Si       0.58634269       3.92523808       3.10515686
Si      -4.79248460       2.30639186       7.19539965
Si       3.68353578       1.08751845       1.31877289
Si      -0.81052197       0.96877031       5.40901568
Si      -1.72719757       4.19323128       5.90369281
Si       0.41808544       0.32970793       1.81345001
18
Lattice="7.74974985679886 -0.8180279679206983 0.5366639461553485 -4.465388703161241 6.386555905097386 -0.5366639461554985 -2.0949568453203793 -2.517212998505431 8.711454775689091" Properties=species:S:1:pos:R:3 unique_starting_index=64 config_type=initial n_minim_iter=17 stress="3.8598415648401174e-05 -5.309283662347281e-05 -0.00011393520368378033 -5.309283662347281e-05 -2.010420026305819e-05 6.719987063580696e-05 -0.00011393520368378033 6.719987063580696e-05 3.180094350884923e-05" pbc="T T T"
Si       0.24860139       3.07600373       5.21857408
Si       2.35061128      -0.85620474       1.13117866
Si      -1.40083546       0.32472987       3.26777366
Si       1.86545239      -0.59876456       7.89183302
Si       6.88414583      -3.32881770       6.59756910
Si       6.70092056       2.82190945       1.97350974
Si      -3.30008290       3.57213195       4.28706989
Si       0.19949458       2.00945406       0.19967447
Si      -2.52728999       2.23049285       2.51578838
Si      -0.34741066      -0.53497202       7.13984774
Si      -2.74878408       2.09033104       6.14972830
Si       1.76304826       2.24389849       2.06233289
Si       0.58373212       3.92612511       3.10054683
Si      -4.79159070       2.30853752       7.18794224
Si       3.68431226       1.08904481       1.31853619
Si      -0.80854888       0.96764242       5.40593161
Si      -1.72211644       4.19065955       5.90369172
Si       0.42162925       0.32921280       1.81629630
18
Lattice="7.750389214078747 -0.8169654052895767 0.5391091396220903 -4.464768115544413 6.387629538221985 -0.5391091396222403 -2.0927227600905667 -2.5199703399115774 8.708292318099591" Properties=species:S:1:pos:R:3 unique_starting_index=64 config_type=initial n_minim_iter=18 stress="-1.4655793661695447e-05 -4.066904967556607e-06 -1.7298293453639866e-05 -4.066904967556607e-06 -1.9152407055063e-05 1.0202668224669359e-05 -1.7298293453639866e-05 1.0202668224669359e-05 -7.890985672840856e-06" pbc="T T T"
Si       0.25108547       3.07462951       5.21459692
Si       2.35221843      -0.85580390       1.13000533
Si      -1.40163937       0.32281492       3.26530293
Si       1.86817607      -0.59798190       7.88900366
Si       6.88546483      -3.32869223       6.59622433
Si       6.70127214       2.82367799       1.97252361
Si      -3.29557745       3.57103185       4.28482128
Si       0.20183981       2.00795323       0.20022969
Si      -2.52541195       2.22970562       2.51341301
Si      -0.34437635      -0.53708213       7.13711374
Si      -2.74518052       2.09189349       6.15025918
Si       1.76262696       2.24189877       2.06566759
Si       0.58250893       3.92694418       3.09677941
Si      -4.79084202       2.30943798       7.18137100
Si       3.68490348       1.09030575       1.31887739
Si      -0.80730907       0.96674118       5.40346898
Si      -1.71899318       4.18913210       5.90260801
Si       0.42367975       0.32912837       1.81801643
18
Lattice="7.750751290581853 -0.8160288754961806 0.5409953859387383 -4.464123674112409 6.388399526980825 -0.5409953859388883 -2.0909801229754317 -2.52214824619177 8.70547673735218" Properties=species:S:1:pos:R:3 unique_starting_index=64 config_type=initial n_minim_iter=19 stress="-4.6090461062000584e-05 3.238409574909421e-05 5.297026312187019e-05 3.238409574909421e-05 -1.028466775125133e-05 -3.124227380365513e-05 5.297026312187019e-05 -3.124227380365513e-05 -2.6874188486280417e-05" pbc="T T T"
Si       0.25333285       3.07372551       5.21132597
Si       2.35340663      -0.85577614       1.12908529
Si      -1.40201716       0.32056864       3.26308987
Si       1.87101151      -0.59718516       7.88632593
Si       6.88602773      -3.32826762       6.59468966
Si       6.70112703       2.82530712       1.97145360
Si      -3.29197882       3.57083068       4.28279461
Si       0.20306667       2.00645838       0.20055393
Si      -2.52406829       2.22897388       2.51105713
Si      -0.34203351      -0.53852472       7.13429319
Si      -2.74208725       2.09313452       6.15101142
Si       1.76234716       2.24014843       2.06877075
Si       0.58182367       3.92775288       3.09357533
Si      -4.79018452       2.30979574       7.17581600
Si       3.68569775       1.09168677       1.31935309
Si      -0.80643661       0.96552720       5.40159377
Si      -1.71659309       4.18816446       5.90166016
Si       0.42499753       0.32905328       1.81941949
18
Lattice="7.7506980281769815 -0.8153801950213037 0.5416581663821419 -4.463530200321876 6.388666757409871 -0.5416581663822919 -2.0903897705971435 -2.523113706516654 8.703737447702927" Properties=species:S:1:pos:R:3 unique_starting_index=64 config_type=initial n_minim_iter=20 stress="-3.5201353746092407e-05 3.4103938232224146e-05 6.356405456892122e-05 3.4103938232224146e-05 2.5060002861856474e-06 -3.749057451982454e-05 6.356405456892122e-05 -3.749057451982454e-05 -2.789696431709034e-05" pbc="T T T"
Si       0.25449955       3.07337228       5.20930110
Si       2.35395843      -0.85581924       1.12826146
Si      -1.40213433       0.31848152       3.26180418
Si       1.87304995      -0.59623123       7.88450199
Si       6.88558829      -3.32726790       6.59305571
Si       6.70031116       2.82628232       1.97035790
Si      -3.29011770       3.57177738       4.28171241
Si       0.20281679       2.00517862       0.20067277
Si      -2.52360643       2.22839401       2.50962221
Si      -0.34103401      -0.53880675       7.13232001
Si      -2.74017947       2.09404708       6.15216204
Si       1.76214973       2.23884436       2.07112240
Si       0.58147162       3.92837120       3.09154547
Si      -4.79003396       2.30991353       7.17258511
Si       3.68649567       1.09297373       1.31960318
Si      -0.80631485       0.96431507       5.40064283
Si      -1.71536223       4.18800734       5.90137183
Si       0.42540874       0.32885915       1.82033219
18
Lattice="7.749965433531982 -0.8149840806394518 0.5406742302190964 -4.462829090412977 6.3882172616779265 -0.5406742302192463 -2.0913500987116094 -2.5225113218678774 8.703190575960596" Properties=species:S:1:pos:R:3 unique_starting_index=64 config_type=initial n_minim_iter=21 stress="1.6180302429935215e-05 -3.9445863271381066e-06 9.86767563844161e-06 -3.9445863271381066e-06 1.1818931841520351e-05 -5.820031956330197e-06 9.86767563844161e-06 -5.820031956330197e-06 -9.658474694642938e-06" pbc="T T T"
Si       0.25408508       3.07353752       5.20825723
Si       2.35372715      -0.85563959       1.12699906
Si      -1.40205029       0.31615143       3.26158360
Si       1.87428337      -0.59467817       7.88351600
Si       6.88368389      -3.32499134       6.59070278
Si       6.69821239       2.82629492       1.96877038
Si      -3.28999284       3.57478988       4.28187208
Si       0.20035462       2.00350871       0.20061391
Si      -2.52412938       2.22774146       2.50968212
Si      -0.34156240      -0.53753413       7.13161452
Si      -2.73926736       2.09496422       6.15475433
Si       1.76190224       2.23749924       2.07349616
Si       0.58104112       3.92864051       3.09036675
Si      -4.79062329       2.31020975       7.17162492
Si       3.68720891       1.09455203       1.31930782
Si      -0.80749639       0.96297700       5.40056600
Si      -1.71525775       4.18892751       5.90213255
Si       0.42476785       0.32821938       1.82087438
