24
Lattice="8.832406992481358 1.5359092859004742 0.4367688611446658 -2.971995859829797 5.944373303533964 1.293714336610796 0.04239869201876671 1.5763294230676017 8.808357891087693" Properties=species:S:1:pos:R:3 unique_starting_index=90 config_type=initial n_minim_iter=10 energy=-3909.186774555884 free_energy=-3909.186774555884 pbc="T T T"
Si       7.04263796       1.09861668       5.53736863
Si       2.01316817       3.94607341       0.55495775
Si       5.88032995       6.34301853       3.71017934
Si       2.05071617       0.03391317       1.95419924
Si       4.13816392       5.30752796      10.45514754
Si      -1.30093991       5.57172076       8.82715426
Si       1.14340407       2.44854675       4.52453069
Si       2.55902580       5.28434197       7.03090082
Si      -0.48343422       7.21194633       7.28406015
Si       5.85258359       2.94975458       6.40856593
Si       2.35284007       4.02372889       3.23355368
Si       4.13548062       7.53252589       4.57586587
Si       3.96903953       7.52164580       0.94314309
Si       8.34772828       5.03429457       8.49411018
Si       0.02871902       4.18992780       1.94488610
Si      -1.30573747       9.12096642      10.32051738
Si      -0.74375540       2.20894311       3.11768570
Si       5.39414199       7.27270794      10.32223314
Si       3.51314346       3.05840530       7.30870332
Si      -0.21794491       3.92974038       5.78195449
Si       0.67234082       6.06394763       5.55937781
Si       4.77703642       1.72699489       0.61297278
Si       6.65973710       4.72206550       5.12131849
Si       2.22608431       6.33668041       3.76955441
