22
Lattice="5.8789530597066415 -1.3935354293246311 -1.7673355767231722 -3.58464822455241 10.165812803453745 -0.4673573709818108 -5.198157786668883 -2.738925583265726 10.903365935293618" Properties=species:S:1:pos:R:3 unique_starting_index=18 config_type=initial n_minim_iter=1 energy=-3578.694449723381 free_energy=-3578.694449723381 pbc="T T T"
Si      -0.83704767       8.52449080       1.23590874
Si      -1.36564309       1.14478383       6.08989767
Si      -5.09839097      -2.11922465       9.71753477
Si      -0.22895459      -1.46990831       8.96412223
Si      -5.90136958       2.14785713       9.78568969
Si       3.70644468       2.02896480       0.15864101
Si       2.13408252       0.25107716       0.12431165
Si      -3.26652849       1.73296341       8.95571203
Si      -2.17602043      -3.01446338       8.84661157
Si      -3.36563223       2.41243561       6.68095292
Si       1.44952550      -0.12113787       3.13084104
Si      -3.75382654       4.54342457       5.71307818
Si      -3.20023516      -0.56815565       5.92592933
Si      -1.72837704       6.55554963       0.23608803
Si      -0.30080593       2.71481508       4.65626559
Si       1.00459526       6.57711430      -1.02947236
Si      -0.85157029      -0.42889018       2.75093801
Si       1.88256349      -3.68309824       5.69961682
Si      -0.14564459       1.88752529       2.33489346
Si      -4.68563048       5.16361094       8.02931889
Si      -1.93970797       4.38969289       4.05528140
Si      -2.45729154      -0.49483222       8.26262508
22
Lattice="5.886547231801599 -1.409851340382714 -1.7814813564954306 -3.612643286667255 10.187860048262834 -0.4723532949856855 -5.2004948073231665 -2.7334138649985524 10.975567414269786" Properties=species:S:1:pos:R:3 unique_starting_index=18 config_type=initial n_minim_iter=2 stress="0.0032749258096025466 0.00012940229988651314 0.00031370925766972444 0.00012940229988651314 0.00362207553928491 0.00011631706350788515 0.00031370925766972444 0.00011631706350788515 0.002942621829191532" pbc="T T T"
Si      -0.86101211       8.53593937       1.23973735
Si      -1.37297460       1.14693618       6.12853811
Si      -5.10160290      -2.11307947       9.78236524
Si      -0.23044979      -1.47549389       9.02018716
Si      -5.91503133       2.16215310       9.84959131
Si       3.70195295       2.02204482       0.15587781
Si       2.13359986       0.24488646       0.12399285
Si      -3.28028281       1.74073522       9.01342499
Si      -2.17456355      -3.01429970       8.90553919
Si      -3.37693747       2.42096726       6.72350093
Si       1.44650929      -0.12652716       3.14983879
Si      -3.77138690       4.55599426       5.74881219
Si      -3.20324734      -0.56322958       5.96446269
Si      -1.74601139       6.56721742       0.23724356
Si      -0.31158267       2.71695279       4.68348577
Si       0.98957020       6.58298280      -1.03975742
Si      -0.85219983      -0.42769135       2.76757985
Si       1.88902560      -3.69536424       5.73537432
Si      -0.15131027       1.88914555       2.34734627
Si      -4.70580734       5.17769829       8.07867517
Si      -1.95536495       4.39907054       4.08032803
Si      -2.46199616      -0.49197426       8.31688629
22
Lattice="5.861011369260879 -1.4266417682337764 -1.796974077089643 -3.6356429147493583 10.149121043451826 -0.47762616640224653 -5.175963152290496 -2.7057282212093714 11.029793194050201" Properties=species:S:1:pos:R:3 unique_starting_index=18 config_type=initial n_minim_iter=3 stress="-0.002775635133087381 -0.0025656888178120195 -0.00019733875660326797 -0.0025656888178120195 -0.0018520940407586067 -0.0004016196162820809 -0.00019733875660326797 -0.0004016196162820809 0.0015843656092272304" pbc="T T T"
Si      -0.89717940       8.49079757       1.23629197
Si      -1.37949351       1.14063345       6.15549474
Si      -5.07844322      -2.08917537       9.83198490
Si      -0.23618398      -1.47628577       9.05639863
Si      -5.90347539       2.16891966       9.89679317
Si       3.66884823       1.99558706       0.14708862
Si       2.11749359       0.23133231       0.12139841
Si      -3.28893047       1.74024198       9.05436411
Si      -2.16249010      -2.99100533       8.95079966
Si      -3.37622043       2.41548533       6.75322989
Si       1.42789581      -0.13555829       3.16121298
Si      -3.77932882       4.54159936       5.77305174
Si      -3.18932983      -0.55182530       5.99234261
Si      -1.76372534       6.53674463       0.23887987
Si      -0.33118552       2.69939169       4.69767940
Si       0.95917166       6.54422634      -1.05304304
Si      -0.84894273      -0.42218977       2.77681601
Si       1.88359357      -3.69009070       5.75847741
Si      -0.16039569       1.87736629       2.35143037
Si      -4.71243632       5.16017549       8.10999976
Si      -1.97192671       4.38173835       4.09698366
Si      -2.45773253      -0.48425095       8.35721018
22
Lattice="5.8829089107147965 -1.3564274151582314 -1.8533469875099329 -3.542318109074391 10.031181252249873 -0.4485608612517259 -5.317046448786428 -2.736745949613879 11.105950468510217" Properties=species:S:1:pos:R:3 unique_starting_index=18 config_type=initial n_minim_iter=4 stress="-0.0025241867599474724 0.0029361460580558498 -0.0024862298062888794 0.0029361460580558498 -0.003925579775855078 -0.0008543289102010258 -0.0024862298062888794 -0.0008543289102010258 0.0026966008499334873" pbc="T T T"
Si      -0.84144730       8.40088474       1.23052291
Si      -1.41763212       1.11156925       6.20602722
Si      -5.20085503      -2.13413901       9.91015429
Si      -0.31227492      -1.48234983       9.07516367
Si      -5.96497846       2.10612676       9.98186204
Si       3.68464231       2.03270695       0.10254628
Si       2.09978216       0.21761285       0.10772070
Si      -3.41818039       1.71956185       9.12156566
Si      -2.27267117      -2.93671901       9.03913973
Si      -3.39270121       2.35034497       6.80500811
Si       1.35251047      -0.12651752       3.17162479
Si      -3.80231770       4.45431550       5.81691082
Si      -3.23223232      -0.58263792       6.02270134
Si      -1.69117293       6.43855898       0.29447630
Si      -0.36476616       2.67366228       4.68733147
Si       1.07085729       6.51010836      -1.08529156
Si      -0.87497290      -0.40868917       2.75578726
Si       1.79010843      -3.65311170       5.76417753
Si      -0.13724513       1.86449800       2.32021306
Si      -4.72972002       5.04061309       8.14127942
Si      -1.98965565       4.33981464       4.13689425
Si      -2.53037225      -0.48415383       8.43381861
22
Lattice="5.931771975065609 -1.4454827988678474 -1.7835943747586602 -3.694340213273739 10.161734563851574 -0.4273904761523814 -5.241046820054473 -2.655523866203682 10.87009033045868" Properties=species:S:1:pos:R:3 unique_starting_index=18 config_type=initial n_minim_iter=5 stress="0.0009477093441381945 -0.0025068660527992116 0.001779926508526653 -0.0025068660527992116 2.243670317707285e-05 0.0003861640532361863 0.001779926508526653 0.0003861640532361863 -0.003155713928739147" pbc="T T T"
Si      -0.94721585       8.48497994       1.22875372
Si      -1.38711682       1.15908993       6.10898187
Si      -5.14116843      -2.06082132       9.69901617
Si      -0.21311741      -1.46669404       8.91119916
Si      -5.94630688       2.24275610       9.78474177
Si       3.67758327       2.01885358       0.12984951
Si       2.10192796       0.17644005       0.12594959
Si      -3.42749576       1.82753454       8.95673742
Si      -2.18071191      -2.87269013       8.88704500
Si      -3.37743913       2.42935103       6.67919064
Si       1.36121916      -0.13498791       3.13920887
Si      -3.84551434       4.55424241       5.70564926
Si      -3.18737460      -0.52923117       5.88909072
Si      -1.77388150       6.49654657       0.32945815
Si      -0.37581506       2.71702867       4.60207869
Si       1.01444663       6.55941227      -1.04475394
Si      -0.85963592      -0.38047364       2.67943062
Si       1.88548676      -3.68785598       5.67216713
Si      -0.12688116       1.89715091       2.26294866
Si      -4.75614332       5.15903173       7.96963218
Si      -2.04024734       4.42640234       4.07601541
Si      -2.47280511      -0.41303282       8.29214755
22
Lattice="5.839881951867309 -1.3788523320413264 -1.8689324207683382 -3.5019573190580657 10.180144044221493 -0.3941618600807946 -5.3140921972049515 -2.740536851096106 11.053613630522925" Properties=species:S:1:pos:R:3 unique_starting_index=18 config_type=initial n_minim_iter=6 stress="-0.0018138403911684183 0.004234632220834037 -0.0029035404525662345 0.004234632220834037 0.00453819147214487 -0.0005068867326773615 -0.0029035404525662345 -0.0005068867326773615 0.004601805631135513" pbc="T T T"
Si      -0.83743863       8.52687916       1.24731891
Si      -1.41089659       1.14778002       6.20113748
Si      -5.19791194      -2.14549059       9.86547468
Si      -0.30568994      -1.49073399       9.01334122
Si      -5.92604208       2.18521794       9.97400593
Si       3.62159860       2.08742932       0.08635260
Si       2.06653864       0.19847315       0.12150297
Si      -3.45698051       1.80225875       9.10000822
Si      -2.26775652      -2.92059781       9.01951328
Si      -3.35517706       2.39411691       6.78950184
Si       1.29941668      -0.12436414       3.17672573
Si      -3.80071114       4.51894843       5.80685842
Si      -3.19556949      -0.57724772       5.98834935
Si      -1.68169825       6.48001788       0.38246477
Si      -0.40300151       2.72364780       4.64016387
Si       1.11902639       6.62895367      -1.07726986
Si      -0.91255216      -0.38548747       2.70058387
Si       1.75393107      -3.67704103       5.72807617
Si      -0.11036918       1.92349264       2.26067594
Si      -4.71587045       5.14730733       8.08956308
Si      -2.00718479       4.42946864       4.14249772
Si      -2.53161411      -0.43900648       8.43973119
22
Lattice="5.922706682663439 -1.357927130488496 -1.872306414700717 -3.560140704248053 9.968474481177939 -0.37406911318290337 -5.374823831254702 -2.6524542414920984 11.078991842377782" Properties=species:S:1:pos:R:3 unique_starting_index=18 config_type=initial n_minim_iter=7 stress="0.004811442321184045 0.005406571551855205 0.0005059204833673226 0.005406571551855205 -0.004903074844227419 -0.0008244781489269246 0.0005059204833673226 -0.0008244781489269246 0.007727300176824452" pbc="T T T"
Si      -0.86030194       8.34657327       1.26495651
Si      -1.40891299       1.13894370       6.23286306
Si      -5.26446448      -2.08024682       9.88293272
Si      -0.25784292      -1.45506564       9.03322257
Si      -5.98274471       2.17633583      10.02843488
Si       3.63491517       2.05683942       0.08896390
Si       2.09069987       0.18245567       0.15093855
Si      -3.51474200       1.80294991       9.13571001
Si      -2.26265139      -2.83190091       9.05560200
Si      -3.37657350       2.35418630       6.81289281
Si       1.31068381      -0.12386029       3.21505934
Si      -3.86733971       4.41513035       5.82394297
Si      -3.20829928      -0.55406428       5.99735725
Si      -1.72780962       6.29265682       0.45407599
Si      -0.43216513       2.66772001       4.63230501
Si       1.17123007       6.51120588      -1.07985585
Si      -0.96402163      -0.35183910       2.67263288
Si       1.79956784      -3.57239956       5.75387325
Si      -0.08446668       1.91167763       2.22455552
Si      -4.79259881       5.08155385       8.08976778
Si      -2.05250958       4.35481255       4.16387025
Si      -2.55676751      -0.39166740       8.50749986
22
Lattice="5.957897665962158 -1.4560183656639119 -1.9219187722565438 -3.6804807527078767 10.10463386613435 -0.2592514696851299 -5.466892562120357 -2.5431237650104705 10.944089188368293" Properties=species:S:1:pos:R:3 unique_starting_index=18 config_type=initial n_minim_iter=8 stress="0.004210519420084699 0.0014087802392194991 -0.003339066307866549 0.0014087802392194991 -0.001966215435876852 0.000871772189118492 -0.003339066307866549 0.000871772189118492 0.0013773846566843939" pbc="T T T"
Si      -0.99302150       8.43134753       1.30071190
Si      -1.47202202       1.20154385       6.16899451
Si      -5.35399710      -1.98590297       9.76168188
Si      -0.28591287      -1.43876063       8.86722896
Si      -6.09823042       2.34644785       9.97944913
Si       3.55166700       2.05695170       0.04834664
Si       2.07322062       0.14267671       0.15731826
Si      -3.66917219       1.93960008       9.04398400
Si      -2.29911779      -2.76630319       8.93944081
Si      -3.45434404       2.44411834       6.75621216
Si       1.24811932      -0.13598174       3.18229869
Si      -4.01357416       4.50262935       5.78705392
Si      -3.22990654      -0.49160798       5.92474645
Si      -1.83799474       6.29749404       0.59356629
Si      -0.55803227       2.71032217       4.53490052
Si       1.16037586       6.58670171      -1.06232180
Si      -1.04088434      -0.29565551       2.58977327
Si       1.79339280      -3.57334549       5.63393130
Si      -0.09662235       1.97677806       2.13115816
Si      -4.97084970       5.25989465       7.99696179
Si      -2.18378127       4.45843289       4.14678569
Si      -2.64929326      -0.28994469       8.45787244
22
Lattice="5.894709139644598 -1.478213535787375 -1.869884368290828 -3.676360616862945 10.191364711516924 -0.300668874172677 -5.331697545187643 -2.5686323483136335 10.87265243030764" Properties=species:S:1:pos:R:3 unique_starting_index=18 config_type=initial n_minim_iter=9 stress="0.0014289998151361233 -0.0001667301832837571 -0.00024621196563216074 -0.0001667301832837571 -0.00014525016609067825 -0.00062628972803898 -0.00024621196563216074 -0.00062628972803898 -0.00034425953643451505" pbc="T T T"
Si      -1.00184289       8.48926400       1.27647790
Si      -1.41061508       1.20315836       6.13777533
Si      -5.22949626      -2.00735615       9.68867395
Si      -0.19505242      -1.47307313       8.83434127
Si      -5.97072290       2.36628999       9.91170446
Si       3.49886655       2.07238512       0.06911797
Si       2.05403198       0.13761525       0.18122099
Si      -3.57757893       1.95050437       8.98459799
Si      -2.19648128      -2.80161149       8.90182676
Si      -3.37360110       2.45598733       6.70592369
Si       1.25394052      -0.15125453       3.19087258
Si      -3.95663961       4.52308675       5.72381469
Si      -3.14580193      -0.50063584       5.88149413
Si      -1.84388057       6.32353124       0.59711250
Si      -0.53926714       2.71885818       4.49839993
Si       1.14186931       6.64729401      -1.07105070
Si      -1.02448505      -0.28750852       2.56247108
Si       1.83708500      -3.60680715       5.63975500
Si      -0.07634102       1.99968893       2.10240221
Si      -4.89449037       5.30862289       7.91299917
Si      -2.15370028       4.49461660       4.10893819
Si      -2.56502487      -0.29595782       8.43256930
22
Lattice="5.806629314897208 -1.5349084586348825 -1.8401755418780585 -3.6749775795774138 10.288436958824322 -0.21729103604351688 -5.1739791568893665 -2.454833075690446 10.777352745083352" Properties=species:S:1:pos:R:3 unique_starting_index=18 config_type=initial n_minim_iter=10 stress="-0.0034673127955628363 -0.0023114349161696343 0.0015963171127559232 -0.0023114349161696343 0.0005826242094861035 0.003994023687704588 0.0015963171127559232 0.003994023687704588 -0.0032312183827629066" pbc="T T T"
Si      -1.03677004       8.55543457       1.36167051
Si      -1.34279852       1.28217295       6.11830902
Si      -5.07655469      -1.90148884       9.58871966
Si      -0.08856250      -1.40371861       8.77918123
Si      -5.82383342       2.52193739       9.89439964
Si       3.41242026       2.09128337       0.11366026
Si       2.02521141       0.14113196       0.21119907
Si      -3.47089615       2.07399105       8.94979045
Si      -2.07967699      -2.74378625       8.82854371
Si      -3.28954551       2.56078374       6.69138773
Si       1.24746072      -0.13880744       3.20084987
Si      -3.90629602       4.60369493       5.70641082
Si      -3.04431261      -0.43375931       5.84058823
Si      -1.86383608       6.34502226       0.71011578
Si      -0.53768154       2.77913636       4.48555828
Si       1.11306280       6.71006706      -1.01863735
Si      -0.99957560      -0.22762729       2.52983899
Si       1.89246427      -3.56897592       5.60337745
Si      -0.06114857       2.05805353       2.09396290
Si      -4.83357941       5.47531223       7.89557371
Si      -2.12805531       4.59402185       4.12288082
Si      -2.48041799      -0.19699531       8.42743972
22
Lattice="5.7748171308381036 -1.541499860398839 -1.8028518810879157 -3.6919766452523044 10.360024608133854 -0.3470239981792555 -5.11327001379313 -2.5845379110062554 10.747524138899355" Properties=species:S:1:pos:R:3 unique_starting_index=18 config_type=initial n_minim_iter=11 stress="-0.004324660841617102 -0.003483030659007002 0.001650039583828328 -0.003483030659007002 0.0015481448882182826 -0.0021617141352494977 0.001650039583828328 -0.0021617141352494977 -0.005129366468104817" pbc="T T T"
Si      -1.08261718       8.55808448       1.26030438
Si      -1.31393447       1.21499348       6.06695581
Si      -5.00951752      -2.00971328       9.54186778
Si      -0.02646430      -1.52887476       8.73875469
Si      -5.77047642       2.44164925       9.83469596
Si       3.36226877       2.10568308       0.09626239
Si       2.01174597       0.14404861       0.22243888
Si      -3.43282220       1.98236532       8.87211431
Si      -2.02893357      -2.88264956       8.81400483
Si      -3.26616973       2.50510339       6.62560179
Si       1.23543905      -0.19982081       3.19945620
Si      -3.91283122       4.53657976       5.59323269
Si      -2.99812679      -0.49899307       5.81894714
Si      -1.88990296       6.33518438       0.69175285
Si      -0.55524796       2.73093444       4.40633904
Si       1.10064351       6.77927825      -1.12504778
Si      -0.98079710      -0.22333852       2.50683464
Si       1.93655810      -3.65198063       5.62509294
Si      -0.05889896       2.06141976       2.04528281
Si      -4.84663095       5.43691426       7.77004899
Si      -2.13178504       4.58893702       4.03499119
Si      -2.45779787      -0.29466139       8.42530129
22
Lattice="5.739041816631572 -1.522247019148562 -1.792367792455416 -3.646056363841123 10.324790072765712 -0.3470235049292697 -5.059709387051357 -2.578119704402121 10.78056309845895" Properties=species:S:1:pos:R:3 unique_starting_index=18 config_type=initial n_minim_iter=12 stress="-0.002671709174215197 -0.0012688932763319268 0.0014110177329982384 -0.0012688932763319268 0.0010659193424143929 -0.0010801648003042682 0.0014110177329982384 -0.0010801648003042682 -0.0015456505339514843" pbc="T T T"
Si      -1.07811445       8.49955261       1.28638039
Si      -1.26877130       1.21490769       6.09379277
Si      -4.94251169      -2.00274922       9.55427719
Si       0.03379597      -1.51162630       8.76021727
Si      -5.69109146       2.44587144       9.89139078
Si       3.34187063       2.13095462       0.11569992
Si       1.99689374       0.15851218       0.23361537
Si      -3.38419966       1.98146805       8.90759422
Si      -1.99381951      -2.87138194       8.85430866
Si      -3.22083819       2.50408241       6.65455867
Si       1.22194858      -0.20868929       3.22448960
Si      -3.88644923       4.48608914       5.58693295
Si      -2.95188259      -0.49438912       5.84545458
Si      -1.86142767       6.28171007       0.76877476
Si      -0.54789691       2.72635406       4.41140189
Si       1.12528696       6.78927339      -1.15547463
Si      -0.93940938      -0.18506544       2.50596472
Si       1.96813329      -3.62477856       5.64990880
Si      -0.04469376       2.07175404       2.05583621
Si      -4.80794987       5.41182003       7.78898446
Si      -2.09834588       4.59894562       4.04888961
Si      -2.42427329      -0.28703396       8.49807188
22
Lattice="5.752805967644484 -1.5040629057402162 -1.8093857397780386 -3.6322434143368594 10.251896446995138 -0.3247779190783088 -5.09103169531821 -2.5505351587430876 10.828275399803731" Properties=species:S:1:pos:R:3 unique_starting_index=18 config_type=initial n_minim_iter=13 stress="0.0013851741774795806 0.0008412427962765272 -0.0010374419864855869 0.0008412427962765272 -0.00061485481436567 0.000288562037970264 -0.0010374419864855869 0.000288562037970264 0.0014052276557063607" pbc="T T T"
Si      -1.09147753       8.41096679       1.32077088
Si      -1.26166861       1.21364627       6.12607296
Si      -4.95543756      -1.98006474       9.58139327
Si       0.04640588      -1.47612138       8.77054248
Si      -5.70347379       2.45186480       9.96017486
Si       3.35076141       2.14457516       0.12379916
Si       1.99358718       0.16781873       0.23374893
Si      -3.40528987       1.98158091       8.95644875
Si      -2.01354533      -2.83303430       8.89626547
Si      -3.23774970       2.49506640       6.68990809
Si       1.22075134      -0.21722900       3.24234145
Si      -3.92104111       4.42182511       5.59288961
Si      -2.95766965      -0.47528054       5.88386166
Si      -1.85074435       6.20548231       0.85699707
Si      -0.56915370       2.71819978       4.42339920
Si       1.15047375       6.77168745      -1.18541759
Si      -0.92503723      -0.15208853       2.50945928
Si       1.99039895      -3.58766603       5.65206841
Si      -0.04869006       2.07470922       2.07142449
Si      -4.83652947       5.36561236       7.82421342
Si      -2.09759114       4.59660572       4.07043119
Si      -2.44884117      -0.27158475       8.57051510
22
Lattice="5.705813108448921 -1.4932152073387552 -1.7826755095162554 -3.5934647416965557 10.23161089386936 -0.3304354096893764 -4.9956620988733915 -2.536421728114654 10.84819755982932" Properties=species:S:1:pos:R:3 unique_starting_index=18 config_type=initial n_minim_iter=14 stress="0.003323152597553328 0.0020111269532294648 -0.00045626228097915214 0.0020111269532294648 -0.0006617640236929135 0.0008215353848693636 -0.00045626228097915214 0.0008215353848693636 0.0035443372748753996" pbc="T T T"
Si      -1.08762303       8.36362385       1.35601102
Si      -1.18714232       1.21703598       6.16722272
Si      -4.85251250      -1.97387089       9.56858366
Si       0.12793666      -1.43177786       8.77789334
Si      -5.59471522       2.47815541       9.98629420
Si       3.34573425       2.17919141       0.17266661
Si       1.97256065       0.17467879       0.25487932
Si      -3.33253144       1.99561195       9.00034713
Si      -1.93764502      -2.79609759       8.93409016
Si      -3.18688971       2.48343626       6.69910473
Si       1.27446802      -0.23659692       3.28021044
Si      -3.90092631       4.35440668       5.54812693
Si      -2.89432424      -0.44172093       5.91490677
Si      -1.81682131       6.13205034       0.96143943
Si      -0.56660805       2.73288157       4.44574354
Si       1.15046488       6.80413906      -1.21149155
Si      -0.90440399      -0.12890714       2.50832639
Si       2.05639463      -3.57640187       5.66313636
Si      -0.05058039       2.09981133       2.09429809
Si      -4.75976961       5.33789513       7.81244934
Si      -2.04219159       4.63021467       4.07846833
Si      -2.39189975      -0.25539300       8.63962445
22
Lattice="5.665526079973346 -1.5171955059146636 -1.7650560156092503 -3.5988048583430525 10.285763103028083 -0.3300157472215284 -4.923723470543888 -2.5240641131960815 10.813395267841935" Properties=species:S:1:pos:R:3 unique_starting_index=18 config_type=initial n_minim_iter=15 stress="0.00013593509782044758 0.0005179714271411533 -0.0008814029853800242 0.0005179714271411533 6.123586484682712e-05 -0.00033063622724970867 -0.0008814029853800242 -0.00033063622724970867 -0.0001050528850711852" pbc="T T T"
Si      -1.10148395       8.39677266       1.37291303
Si      -1.14814963       1.22839698       6.17116742
Si      -4.78566704      -1.96737281       9.51590336
Si       0.16188254      -1.40502554       8.73769671
Si      -5.54119836       2.52940823       9.94248473
Si       3.33834361       2.19568245       0.20653092
Si       1.95410691       0.16897227       0.26732662
Si      -3.29218432       2.02793538       8.99758972
Si      -1.87209393      -2.77984559       8.90828490
Si      -3.17237745       2.48273581       6.67172735
Si       1.32870090      -0.25625600       3.28115084
Si      -3.90613914       4.33854311       5.48116988
Si      -2.85604731      -0.40045979       5.91504024
Si      -1.81823025       6.10798823       1.01171910
Si      -0.58645173       2.76579350       4.45835558
Si       1.11208910       6.85677966      -1.20848548
Si      -0.91379705      -0.13627521       2.50460031
Si       2.09701486      -3.60488132       5.63442583
Si      -0.07983249       2.13112885       2.09527276
Si      -4.71386523       5.37422391       7.75803607
Si      -2.01911732       4.68254058       4.06641951
Si      -2.36212467      -0.23898453       8.62989362
22
Lattice="5.654690836631424 -1.546678328723195 -1.732823130882539 -3.632109512094379 10.310611224748198 -0.3042609530542438 -4.841482274989728 -2.4595743978488205 10.759699707300198" Properties=species:S:1:pos:R:3 unique_starting_index=18 config_type=initial n_minim_iter=16 stress="-0.002920859930422314 -0.001683949689127741 0.0021729057416573286 -0.001683949689127741 0.0012748579996362498 6.160984597129872e-05 0.0021729057416573286 6.160984597129872e-05 -0.0024007189134130557" pbc="T T T"
Si      -1.09103258       8.43837259       1.41520467
Si      -1.10994865       1.26409493       6.17592465
Si      -4.72479953      -1.90500006       9.45727058
Si       0.20583498      -1.34487363       8.71923676
Si      -5.50274484       2.61007580       9.88136338
Si       3.37228705       2.17922243       0.25936553
Si       1.95930606       0.16868080       0.27657572
Si      -3.22253831       2.08921837       9.00385322
Si      -1.77845165      -2.73642194       8.85512970
Si      -3.15689792       2.49657160       6.66293605
Si       1.38826089      -0.24695628       3.25802119
Si      -3.89231884       4.35753460       5.43100029
Si      -2.82307791      -0.33451912       5.91424928
Si      -1.83453847       6.09814096       1.00301396
Si      -0.57725526       2.81763701       4.51840671
Si       1.05620689       6.85935259      -1.13502096
Si      -0.90846778      -0.16250555       2.52572361
Si       2.14778456      -3.60482451       5.61815816
Si      -0.12583564       2.14968221       2.10419267
Si      -4.64751957       5.45862723       7.72526473
Si      -1.99198657       4.72040914       4.08067698
Si      -2.31357142      -0.19071133       8.57678728
22
Lattice="5.664495151048937 -1.5593829376552752 -1.7377151434499543 -3.65769766077 10.275478403942248 -0.270006744257869 -4.842325360584064 -2.4010256614169943 10.750058413743352" Properties=species:S:1:pos:R:3 unique_starting_index=18 config_type=initial n_minim_iter=17 stress="-0.003292609123862884 -0.0021921847883028854 0.001648456644125779 -0.0021921847883028854 -0.00028389328404401695 6.907578892548433e-05 0.001648456644125779 6.907578892548433e-05 -0.0032334150860342872" pbc="T T T"
Si      -1.11661619       8.38523328       1.45275535
Si      -1.09443126       1.27773469       6.19465258
Si      -4.72176594      -1.84863158       9.42826592
Si       0.25033137      -1.31251237       8.68469849
Si      -5.50923874       2.67557590       9.90267849
Si       3.37314294       2.18262663       0.27601394
Si       1.95220433       0.16592138       0.28361679
Si      -3.24003607       2.13811216       9.03469475
Si      -1.73659721      -2.68354233       8.85027253
Si      -3.16757972       2.48241586       6.68328548
Si       1.37927991      -0.25791374       3.24608033
Si      -3.94641581       4.29464142       5.37577482
Si      -2.80059633      -0.28385168       5.93712617
Si      -1.86201563       5.99096371       1.09676658
Si      -0.62558861       2.83596991       4.53437622
Si       1.05985680       6.85870125      -1.13147526
Si      -0.91042850      -0.13648511       2.51815546
Si       2.18863680      -3.57696510       5.60826987
Si      -0.16125207       2.17583265       2.07101568
Si      -4.66630126       5.49325756       7.68802731
Si      -2.01212997       4.74650615       4.10048706
Si      -2.32701025      -0.14149698       8.61328717
22
Lattice="5.747120174426447 -1.5405380751960154 -1.766871665049596 -3.691361387694652 10.156002914378329 -0.2363019730602405 -4.952450712899532 -2.3521334104365286 10.797283145220415" Properties=species:S:1:pos:R:3 unique_starting_index=18 config_type=initial n_minim_iter=18 stress="-0.0006337324443036986 -0.0009245387530424209 -0.0006193570649795096 -0.0009245387530424209 -0.0015120663456563552 -0.00035091532505978956 -0.0006193570649795096 -0.00035091532505978956 -0.0013027928721626475" pbc="T T T"
Si      -1.10981244       8.27210155       1.49752332
Si      -1.12625292       1.27268799       6.23118497
Si      -4.81486559      -1.78202843       9.45478378
Si       0.24283964      -1.27072850       8.67901678
Si      -5.62995681       2.69757326       9.96217577
Si       3.46628280       2.15432264       0.28680582
Si       1.97674595       0.18241424       0.25213640
Si      -3.30534757       2.15052333       9.12287364
Si      -1.75559709      -2.63351310       8.86683293
Si      -3.25153578       2.41946424       6.75664427
Si       1.35661195      -0.25244868       3.18868250
Si      -4.04781004       4.17959461       5.32811011
Si      -2.84842232      -0.23154996       6.01105239
Si      -1.89539379       5.85795175       1.13003923
Si      -0.67008096       2.85289951       4.61513801
Si       1.06823012       6.79627703      -1.11966068
Si      -0.88706999      -0.13786148       2.56442030
Si       2.21301688      -3.53495991       5.62120240
Si      -0.25081416       2.16831709       2.05725057
Si      -4.71948402       5.47646045       7.69894302
Si      -2.04746533       4.72161286       4.14850310
Si      -2.40639207      -0.11520792       8.64713029
22
Lattice="5.77521683734266 -1.5222505581839016 -1.776001333092408 -3.6828324311415135 10.122457086498802 -0.23209734119681494 -4.997700809151577 -2.357921447186304 10.818629283336833" Properties=species:S:1:pos:R:3 unique_starting_index=18 config_type=initial n_minim_iter=19 stress="0.0001402062528010172 0.0005566839207516089 -0.0003534023922275866 0.0005566839207516089 0.0005285956707440875 -0.0002381944841344697 -0.0003534023922275866 -0.0002381944841344697 0.0005446910657042432" pbc="T T T"
Si      -1.08363937       8.24958492       1.50027650
Si      -1.14672051       1.26712588       6.23956611
Si      -4.85067247      -1.77709531       9.48081066
Si       0.22668060      -1.27159263       8.69341528
Si      -5.66590708       2.67854547       9.98556783
Si       3.49941671       2.14249723       0.28238044
Si       1.98972510       0.18887622       0.23324032
Si      -3.32855327       2.14217741       9.14838027
Si      -1.78395270      -2.62738540       8.88213109
Si      -3.27018762       2.39897292       6.78293451
Si       1.33500719      -0.23559150       3.17038871
Si      -4.05801539       4.15887950       5.33914897
Si      -2.87452448      -0.23717881       6.02507947
Si      -1.89067012       5.85759410       1.09946481
Si      -0.65526338       2.85561961       4.63696804
Si       1.08221798       6.77328576      -1.11458086
Si      -0.87732890      -0.14438317       2.58046816
Si       2.19596328      -3.52112993       5.64159113
Si      -0.26169548       2.15446761       2.05665723
Si      -4.71976305       5.45396024       7.72164425
Si      -2.05750575       4.69625135       4.16428562
Si      -2.42680024      -0.12022375       8.64988315
22
Lattice="5.859653846572564 -1.5047143660962068 -1.7960150379660624 -3.716710514879401 9.994155628154857 -0.17852588498006322 -5.085247212625197 -2.2774065812983095 10.862923336132058" Properties=species:S:1:pos:R:3 unique_starting_index=18 config_type=initial n_minim_iter=20 stress="0.0019236263618633324 0.002941158749789818 -0.00013242913095928466 0.002941158749789818 0.0002538726904289469 0.0014411088093430737 -0.00013242913095928466 0.0014411088093430737 0.001897258567922801" pbc="T T T"
Si      -1.05023669       8.13128167       1.56698745
Si      -1.17975350       1.28144814       6.28689888
Si      -4.89996501      -1.67451478       9.51489627
Si       0.24199728      -1.20655792       8.70089791
Si      -5.75760738       2.71229432      10.06793912
Si       3.59043577       2.09697223       0.31641864
Si       2.02731223       0.19814300       0.18826754
Si      -3.38491654       2.18336635       9.25661693
Si      -1.80337378      -2.52961118       8.91516904
Si      -3.33925348       2.34658503       6.86085724
Si       1.33446783      -0.18847069       3.12534202
Si      -4.15217964       4.04288547       5.31729875
Si      -2.93080912      -0.17542294       6.07909387
Si      -1.91782023       5.78017372       1.10115199
Si      -0.63381475       2.89664003       4.72570746
Si       1.07538954       6.70042510      -1.09105378
Si      -0.88261647      -0.13901717       2.62090144
Si       2.22230467      -3.44382958       5.69097323
Si      -0.32689090       2.14357217       2.05419267
Si      -4.72527115       5.42580372       7.76885688
Si      -2.11160744       4.64785291       4.22477277
Si      -2.47257845      -0.06774252       8.69063428
22
Lattice="5.901429557276583 -1.5298323155282179 -1.8141682617645782 -3.7877463252162467 9.975543446357944 -0.17573518893170278 -5.125514303265614 -2.245578190564448 10.89982037965828" Properties=species:S:1:pos:R:3 unique_starting_index=18 config_type=initial n_minim_iter=21 stress="0.0023380673769417197 0.0011404401665734783 -0.000996305096605337 0.0011404401665734783 0.0004696551832152471 -7.477193644358803e-05 -0.000996305096605337 -7.477193644358803e-05 -0.0007410042557156437" pbc="T T T"
Si      -1.07715195       8.08621646       1.57684048
Si      -1.21985637       1.28338077       6.30583902
Si      -4.90291243      -1.62567018       9.54629449
Si       0.25313881      -1.21137629       8.70631990
Si      -5.82404494       2.72734316      10.12850858
Si       3.58363480       2.05262891       0.32255908
Si       2.05243386       0.18489561       0.15879349
Si      -3.44141448       2.19849239       9.30387539
Si      -1.82104840      -2.50637601       8.94566686
Si      -3.39099924       2.32190228       6.89371759
Si       1.34276381      -0.16347482       3.11171772
Si      -4.23716071       3.97881981       5.31184974
Si      -2.97833990      -0.15715307       6.09052848
Si      -1.97556844       5.78929558       1.07620910
Si      -0.61400770       2.91218016       4.73871519
Si       1.03061802       6.68452942      -1.11808059
Si      -0.93469707      -0.13128324       2.62503777
Si       2.23954036      -3.42677202       5.74150623
Si      -0.34481660       2.13963051       2.03376409
Si      -4.76508599       5.42528890       7.79378105
Si      -2.20097874       4.61061894       4.23818997
Si      -2.50059433      -0.04918036       8.73150940
