16
Lattice="3.86213 -2.3648725711954824e-16 -4.096079446736624e-16 6.081957275371505e-16 9.93259 -4.796699307773118e-16 6.081957275371505e-16 -4.966295 8.601875265375277" Properties=species:S:1:pos:R:3 unique_starting_index=88 config_type=initial n_minim_iter=1 pbc="T T T"
Si       0.78862146       3.14542876       2.58842641
Si       0.78862146       5.63522364       4.58364085
Si       0.78862146       6.11823259       1.42980801
Si       0.29024988       8.94953028       1.13713952
Si       0.29024988       1.47632157       0.28278493
Si       0.29024988       4.47303314       7.18195082
Si       1.10383653       1.94538565       1.57818692
Si       1.10383653       5.36035214       6.12802841
Si       1.10383653       7.59314721       0.89565994
Si       2.55767396       5.00127262       1.94389822
Si       2.55767396       4.14912393       3.29869701
Si       2.55767396       5.74848845       3.35928003
Si       3.84140967      -0.05100633       4.10814638
Si       3.84140967      -1.38303271       6.59197485
Si       3.84140967       1.43403903       6.50362930
Si       0.92783386      -0.00000000       5.73458351
16
Lattice="3.8842245294786073 -2.3214011877693727e-16 -4.0207848019672933e-16 6.292091563041859e-16 10.036360717634729 -6.146144333372753e-16 6.292091563041863e-16 -5.018180358817364 8.691743343015895" Properties=species:S:1:pos:R:3 unique_starting_index=88 config_type=initial n_minim_iter=2 pbc="T T T"
Si       0.79299407       3.17870987       2.61607916
Si       0.79299407       5.69441643       4.63086026
Si       0.79299407       6.18141477       1.44480392
Si       0.29139994       9.04390540       1.14915545
Si       0.29139994       1.49142546       0.28491379
Si       0.29139994       4.51921020       7.25767411
Si       1.11085178       1.96497311       1.59470757
Si       1.11085178       5.41675107       6.19267293
Si       1.11085178       7.67281690       0.90436285
Si       2.57222744       5.05378281       1.96184779
Si       2.57222744       4.19029897       3.33411515
Si       2.57222744       5.81045929       3.39578041
Si       3.86309059      -0.05156629       4.15056471
Si       3.86309059      -1.39790273       6.66111871
Si       3.86309059       1.44946902       6.57180327
Si       0.93410937      -0.00000000       5.79449556
16
Lattice="3.948420910109612 -2.1681830109238752e-16 -3.755403135027831e-16 7.005562200705754e-16 10.39270316066943 -1.3442171284062212e-15 7.005562200705728e-16 -5.196351580334715 9.000344951130556" Properties=species:S:1:pos:R:3 unique_starting_index=88 config_type=initial n_minim_iter=3 pbc="T T T"
Si       0.80539244       3.29356085       2.71165154
Si       0.80539244       5.89793027       4.79221182
Si       0.80539244       6.39756361       1.49648160
Si       0.29405154       9.36885351       1.19051527
Si       0.29405154       1.54294129       0.29142217
Si       0.29405154       4.67725994       7.51840751
Si       1.13220798       2.03164083       1.65150876
Si       1.13220798       5.61077970       6.41513800
Si       1.13220798       7.94663420       0.93369819
Si       2.61450054       5.23426175       2.02138869
Si       2.61450054       4.32979466       3.45664696
Si       2.61450054       6.02499833       3.52230930
Si       3.92733403      -0.05340966       4.29874125
Si       3.92733403      -1.44682763       6.89722844
Si       3.92733403       1.50023728       6.80472021
Si       0.94870374      -0.00000000       6.00022997
16
Lattice="3.967869899152703 -2.1558006972813312e-16 -3.733956338683689e-16 7.173138733732885e-16 10.561499032679981 9.592859696453481e-17 7.173138733732848e-16 -5.280749516339992 9.146526464345637" Properties=species:S:1:pos:R:3 unique_starting_index=88 config_type=initial n_minim_iter=4 pbc="T T T"
Si       0.80891879       3.34829593       2.75711898
Si       0.80891879       5.99433663       4.86825764
Si       0.80891879       6.49961598       1.52114985
Si       0.29442193       9.52307339       1.21006993
Si       0.29442193       1.56716412       0.29426802
Si       0.29442193       4.75201104       7.64218852
Si       1.13928944       2.06317698       1.67848794
Si       1.13928944       5.70277422       6.52051881
Si       1.13928944       8.07629734       0.94751971
Si       2.62733967       5.31972794       2.04925845
Si       2.62733967       4.39559542       3.51487770
Si       2.62733967       6.12692518       3.58239031
Si       3.94675027      -0.05426052       4.36880973
Si       3.94675027      -1.47011905       7.00911259
Si       3.94675027       1.52437957       6.91513061
Si       0.95332446      -0.00000000       6.09768431
16
Lattice="4.00992439569443 -2.0841350807174962e-16 -3.609827849639377e-16 7.723778854421942e-16 11.027723399007428 -2.613633945994605e-15 7.72377885442194e-16 -5.513861699503712 9.55028860944851" Properties=species:S:1:pos:R:3 unique_starting_index=88 config_type=initial n_minim_iter=5 pbc="T T T"
Si       0.81624905       3.49984580       2.88291066
Si       0.81624905       6.26061267       5.07787791
Si       0.81624905       6.78112663       1.58950004
Si       0.29460100       9.94942709       1.26402644
Si       0.29460100       1.63382716       0.30181878
Si       0.29460100       4.95833084       7.98444339
Si       1.15545435       2.15023357       1.75312008
Si       1.15545435       5.95699144       6.81157167
Si       1.15545435       8.43436008       0.98559685
Si       2.65512918       5.55578723       2.12596046
Si       2.65512918       4.57710385       3.67585550
Si       2.65512918       6.40869401       3.74847265
Si       3.98848251      -0.05660570       4.56179210
Si       3.98848251      -1.53493101       7.31841453
Si       3.98848251       1.59153670       7.22037059
Si       0.96417943      -0.00000000       6.36685907
16
Lattice="4.06414359601739 -1.8005636898937974e-16 -3.118667793159724e-16 1.01461910758985e-15 13.247233123247137 -1.2447616094260124e-15 1.0146191075898592e-15 -6.62361656162357 11.472440414586693" Properties=species:S:1:pos:R:3 unique_starting_index=88 config_type=initial n_minim_iter=6 pbc="T T T"
Si       0.82136115       4.22770036       3.48581110
Si       0.82136115       7.52856734       6.06823895
Si       0.82136115       8.11458198       1.91839037
Si       0.28501286      11.98725465       1.52057818
Si       0.28501286       1.94684856       0.33088428
Si       0.28501286       5.93674647       9.62097796
Si       1.18965752       2.56274012       2.11100396
Si       1.18965752       7.17042956       8.19754039
Si       1.18965752      10.13768000       1.16389607
Si       2.69116962       6.68032023       2.48347596
Si       2.69116962       5.43420971       4.44537541
Si       2.69116962       7.75631974       4.54358905
Si       4.04061003      -0.06758797       5.47647826
Si       4.04061003      -1.84705329       8.79273418
Si       4.04061003       1.91464125       8.67566839
Si       0.98495075      -0.00000000       7.64829361
16
Lattice="3.827501856533001 -8.245260706947784e-16 -1.4281210466085375e-15 -6.668325569267984e-16 12.925124185067913 -2.4230382939817596e-15 -6.668325569269143e-16 -6.462562092533958 11.193485891337449" Properties=species:S:1:pos:R:3 unique_starting_index=88 config_type=initial n_minim_iter=7 pbc="T T T"
Si       0.77171861       4.13166876       3.40478466
Si       0.77171861       7.34535772       5.91296345
Si       0.77171861       7.91065979       1.87573778
Si       0.26599636      11.70385356       1.48359957
Si       0.26599636       1.89547022       0.31585160
Si       0.26599636       5.78836249       9.39403472
Si       1.12336863       2.49967570       2.06418619
Si       1.12336863       7.00036191       7.99661014
Si       1.12336863       9.88764865       1.13268957
Si       2.53550080       6.52236676       2.41965943
Si       2.53550080       5.29686524       4.33512086
Si       2.53550080       7.56845426       4.43870560
Si       3.80577712      -0.06574333       5.34782201
Si       3.80577712      -1.79834072       8.57651028
Si       3.80577712       1.86408404       8.46263950
Si       0.92696982      -0.00000000       7.46232393
16
Lattice="3.4527881076577702 -3.892111124167702e-16 -6.741334215756583e-16 4.0957010206366003e-16 12.691773948104156 -2.1033808687687137e-15 4.0957010206494918e-16 -6.345886974052082 10.99139865814772" Properties=species:S:1:pos:R:3 unique_starting_index=88 config_type=initial n_minim_iter=8 pbc="T T T"
Si       0.69125203       4.06981688       3.34994161
Si       0.69125203       7.21211306       5.79186304
Si       0.69125203       7.75573097       1.84959401
Si       0.23469182      11.51189955       1.45707390
Si       0.23469182       1.85180021       0.29326425
Si       0.23469182       5.67396116       9.24106051
Si       1.01964025       2.45045835       2.03650116
Si       1.01964025       6.88431954       7.85098890
Si       1.01964025       9.70288303       1.10390860
Si       2.29060813       6.40995764       2.36726547
Si       2.29060813       5.19102018       4.25657976
Si       2.29060813       7.43668308       4.36755342
Si       3.43344967      -0.06390633       5.25745666
Si       3.43344967      -1.76084279       8.41801483
Si       3.43344967       1.82474911       8.30732583
Si       0.83722565      -0.00000000       7.32759911
16
Lattice="3.381413918955232 -7.210073229583976e-16 -1.248821316001401e-15 -3.9267925151925104e-16 13.07291749951654 -2.420052835430037e-15 -3.926792515374143e-16 -6.536458749758275 11.321478656159467" Properties=species:S:1:pos:R:3 unique_starting_index=88 config_type=initial n_minim_iter=9 pbc="T T T"
Si       0.67216602       4.19529342       3.45194411
Si       0.67216602       7.42828332       5.96227592
Si       0.67216602       7.98579949       1.90725863
Si       0.22588891      11.87701110       1.49982482
Si       0.22588891       1.89683959       0.28577291
Si       0.22588891       5.83552555       9.53588092
Si       1.00281273       2.51675753       2.10493397
Si       1.00281273       7.10100627       8.08943571
Si       1.00281273       9.99161244       1.12710898
Si       2.24731478       6.59872536       2.43270945
Si       2.24731478       5.34388424       4.39046013
Si       2.24731478       7.66676663       4.49830908
Si       3.36257140      -0.06488104       5.41690569
Si       3.36257140      -1.81284030       8.66921444
Si       3.36257140       1.87772133       8.55683719
Si       0.82095493      -0.00000000       7.54765244
16
Lattice="3.2758286061200415 -3.161566790765082e-16 -5.475994311604097e-16 6.483215756020574e-16 13.164751363486547 -4.2897242440410345e-15 6.483215759388866e-16 -6.582375681743277 11.401009115285177" Properties=species:S:1:pos:R:3 unique_starting_index=88 config_type=initial n_minim_iter=10 pbc="T T T"
Si       0.64749712       4.22424519       3.47318375
Si       0.64749712       7.47811844       6.00611359
Si       0.64749712       8.04476340       1.92171178
Si       0.21536006      11.97872051       1.50967687
Si       0.21536006       1.90043395       0.27229441
Si       0.21536006       5.86797258       9.61903783
Si       0.97484147       2.53195573       2.13037430
Si       0.97484147       7.16135607       8.14308398
Si       0.97484147      10.05381524       1.12755084
Si       2.18060583       6.63920822       2.44668503
Si       2.18060583       5.38166295       4.42794362
Si       2.18060583       7.72625586       4.52638047
Si       3.25794581      -0.06453755       5.45863992
Si       3.25794581      -1.82278607       8.72758031
Si       3.25794581       1.88732361       8.61579800
Si       0.79525684      -0.00000000       7.60067274
16
Lattice="3.120110037490432 -1.1300281478563773e-15 -1.9572661694740888e-15 -1.3787982481102602e-15 13.42980633689204 -8.004985297031648e-16 -1.3787982555984129e-15 -6.714903168446024 11.630553455653741" Properties=species:S:1:pos:R:3 unique_starting_index=88 config_type=initial n_minim_iter=11 pbc="T T T"
Si       0.61090999       4.30465793       3.53440650
Si       0.61090999       7.62346001       6.13540708
Si       0.61090999       8.21659155       1.96073987
Si       0.19988805      12.25292288       1.53808980
Si       0.19988805       1.92046656       0.25016607
Si       0.19988805       5.97132006       9.84229759
Si       0.93346482       2.57613351       2.19063660
Si       0.93346482       7.32398335       8.30423809
Si       0.93346482      10.24459263       1.13567877
Si       2.08251922       6.75571950       2.49256974
Si       2.08251922       5.49567213       4.53364388
Si       2.08251922       7.89331787       4.60433984
Si       3.10367389      -0.06423751       5.57379762
Si       3.10367389      -1.85573409       8.89928596
Si       3.10367389       1.91997159       8.78802334
Si       0.75719345      -0.00000000       7.75370230
16
Lattice="2.77956326024842 1.1587329953804162e-15 2.0069845205563585e-15 4.335086745584357e-15 13.615752792494318 -5.527676552617652e-15 4.335086964098334e-15 -6.807876396247161 11.791587809948991" Properties=species:S:1:pos:R:3 unique_starting_index=88 config_type=initial n_minim_iter=12 pbc="T T T"
Si       0.53825166       4.35138913       3.56521804
Si       0.53825166       7.71975122       6.24056526
Si       0.53825166       8.35248883       1.98580451
Si       0.17402894      12.45816596       1.55464493
Si       0.17402894       1.92515541       0.22517713
Si       0.17402894       6.04030780      10.01176575
Si       0.83546821       2.59801106       2.23441192
Si       0.83546821       7.44392834       8.42443827
Si       0.83546821      10.38168978       1.13273762
Si       1.86094758       6.81484396       2.52907444
Si       1.86094758       5.59069712       4.62522259
Si       1.86094758       8.01808810       4.63729078
Si       2.76546328      -0.06317484       5.65652660
Si       2.76546328      -1.87759325       9.01803553
Si       2.76546328       1.94076808       8.90861350
Si       0.67414826      -0.00000000       7.86105854
16
Lattice="2.4892467779203047 -1.1743289966008298e-14 -2.0339980448274023e-14 -2.7088250129640215e-14 15.286984091311693 -1.2229054809269283e-15 -2.7088262248650773e-14 -7.643492045655849 13.238916570324502" Properties=species:S:1:pos:R:3 unique_starting_index=88 config_type=initial n_minim_iter=13 pbc="T T T"
Si       0.47887860       4.84657261       3.97344046
Si       0.47887860       8.66130611       7.05494134
Si       0.47887860       9.42259740       2.21053478
Si       0.15399393      14.02675769       1.74037913
Si       0.15399393       2.13732574       0.22119852
Si       0.15399393       6.76639270      11.27733893
Si       0.75059583       2.89413428       2.51645200
Si       0.75059583       8.37573626       9.47429676
Si       0.75059583      11.66060559       1.24816781
Si       1.66913293       7.59203482       2.84230993
Si       1.66913293       6.30898724       5.24286658
Si       1.66913293       9.02945407       5.15374006
Si       2.47605914      -0.06901213       6.34819541
Si       2.47605914      -2.11128749      10.12458512
Si       2.47605914       2.18029961      10.00505261
Si       0.60561971      -0.00000000       8.82594438
16
Lattice="2.592977952055097 -1.5999436381118837e-14 -2.771184434844935e-14 -4.042382740611848e-14 14.878949047626742 -3.2408116153620714e-15 -4.042384512393776e-14 -7.43947452381337 12.885547856859038" Properties=species:S:1:pos:R:3 unique_starting_index=88 config_type=initial n_minim_iter=14 pbc="T T T"
Si       0.49876257       4.68567059       3.84399957
Si       0.49876257       8.42564050       6.90563831
Si       0.49876257       9.20711247       2.13590998
Si       0.16116020      13.64298487       1.68483240
Si       0.16116020       2.07708974       0.22796017
Si       0.16116020       6.59834895      10.97275529
Si       0.78097229       2.81253619       2.43685382
Si       0.78097229       8.14358373       9.23139315
Si       0.78097229      11.36230363       1.21730089
Si       1.73892842       7.36295148       2.78416533
Si       1.73892842       6.16915669       5.11696216
Si       1.73892842       8.78631540       4.98442036
Si       2.57989888      -0.06735910       6.20290809
Si       2.57989888      -2.03391900       9.84242850
Si       2.57989888       2.10127809       9.72575913
Si       0.62883733      -0.00000000       8.59036524
16
Lattice="2.5136391578248163 -2.2183048011583874e-14 -3.8422176878797626e-14 -5.552714099053494e-14 14.676554951477174 3.697566784731354e-16 -5.5527165061356734e-14 -7.338277475738588 12.710269428017522" Properties=species:S:1:pos:R:3 unique_starting_index=88 config_type=initial n_minim_iter=15 pbc="T T T"
Si       0.48334255       4.61428688       3.78537560
Si       0.48334255       8.30936546       6.82149196
Si       0.48334255       9.09118007       2.10340187
Si       0.15640899      13.45713059       1.65858969
Si       0.15640899       2.04609298       0.22675763
Si       0.15640899       6.51160885      10.82492211
Si       0.75693924       2.77188836       2.40018089
Si       0.75693924       8.03095092       9.10965324
Si       0.75693924      11.21199314       1.20043529
Si       1.68583763       7.25427167       2.75354191
Si       1.68583763       6.09577888       5.05111492
Si       1.68583763       8.66478186       4.90561260
Si       2.50113288      -0.06636714       6.12647777
Si       2.50113288      -1.99940853       9.70450617
Si       2.50113288       2.06577566       9.58955492
Si       0.60907936      -0.00000000       8.47351295
16
Lattice="2.5550118178364034 -2.989799144772183e-14 -5.1784854638242025e-14 -7.600305661709713e-14 14.768944848276725 1.4930709570576737e-15 -7.600308931781784e-14 -7.384472424138366 12.790281425698954" Properties=species:S:1:pos:R:3 unique_starting_index=88 config_type=initial n_minim_iter=16 pbc="T T T"
Si       0.49124722       4.63801308       3.80559167
Si       0.49124722       8.36120494       6.87084844
Si       0.49124722       9.15419924       2.11384132
Si       0.15903760      13.54285024       1.66791650
Si       0.15903760       2.05750536       0.22787083
Si       0.15903760       6.55306166      10.89449410
Si       0.76935015       2.78778934       2.41413057
Si       0.76935015       8.08127615       9.16891975
Si       0.76935015      11.28435177       1.20723110
Si       1.71362924       7.29417873       2.77373058
Si       1.71362924       6.13950420       5.08647205
Si       1.71362924       8.71973433       4.93007879
Si       2.54237904      -0.06675451       6.16736843
Si       2.54237904      -2.00999744       9.76440831
Si       2.54237904       2.07675194       9.64878612
Si       0.61886742      -0.00000000       8.52685428
16
Lattice="2.5533116467329453 -4.064365169292706e-14 -7.039688937086513e-14 -1.0363534206073258e-13 14.759766366446222 -1.3743477154376357e-15 -1.0363538640131862e-13 -7.379883183223113 12.782332627265568" Properties=species:S:1:pos:R:3 unique_starting_index=88 config_type=initial n_minim_iter=17 pbc="T T T"
Si       0.49086807       4.63121827       3.80026452
Si       0.49086807       8.35539965       6.87144769
Si       0.49086807       9.15303161       2.11062042
Si       0.15899518      13.53493506       1.66556263
Si       0.15899518       2.05483520       0.22795371
Si       0.15899518       6.54987928      10.88881629
Si       0.76878764       2.78478921       2.41129630
Si       0.76878764       8.07573242       9.16498627
Si       0.76878764      11.27912790       1.20605006
Si       1.71252823       7.28518718       2.77488687
Si       1.71252823       6.14041211       5.08573202
Si       1.71252823       8.71405025       4.92171374
Si       2.54075689      -0.06667540       6.16637026
Si       2.54075689      -2.00631220       9.75689008
Si       2.54075689       2.07298758       9.64140492
Si       0.61824714      -0.00000000       8.52155509
16
Lattice="2.544908212247737 -5.5387635073175893e-14 -9.593422486370722e-14 -1.4152456121881153e-13 14.715137346716334 -2.4446976215189466e-15 -1.4152462151842637e-13 -7.35756867335817 12.743682762433485" Properties=species:S:1:pos:R:3 unique_starting_index=88 config_type=initial n_minim_iter=18 pbc="T T T"
Si       0.48882662       4.58328586       3.76302828
Si       0.48882662       8.32480382       6.89292663
Si       0.48882662       9.16461633       2.08772786
Si       0.15901648      13.49915251       1.64888139
Si       0.15901648       2.03596558       0.22863307
Si       0.15901648       6.53758792      10.86616831
Si       0.76582399       2.76502661       2.39244463
Si       0.76582399       8.04697319       9.15287716
Si       0.76582399      11.26070621       1.19836097
Si       1.70720556       7.22387022       2.79122705
Si       1.70720556       6.16290709       5.09201411
Si       1.70720556       8.68592870       4.86044160
Si       2.53299383      -0.06612004       6.17209380
Si       2.53299383      -1.97931864       9.71489749
Si       2.53299383       2.04543866       9.60037424
Si       0.61441874      -0.00000000       8.49578851
16
Lattice="2.5172080425502763 -7.597623675320886e-14 -1.315947390466253e-13 -1.8956380947925644e-13 14.999806552014682 -2.725204016969547e-15 -1.895638900289174e-13 -7.499903276007341 12.990213525896982" Properties=species:S:1:pos:R:3 unique_starting_index=88 config_type=initial n_minim_iter=19 pbc="T T T"
Si       0.48330499       4.62521055       3.79750216
Si       0.48330499       8.47603133       7.08591261
Si       0.48330499       9.39846793       2.10679876
Si       0.15806560      13.77969659       1.65858789
Si       0.15806560       2.04643423       0.22735228
Si       0.15806560       6.67357900      11.10427336
Si       0.75684710       2.79599215       2.42080815
Si       0.75684710       8.19838855       9.35840922
Si       0.75684710      11.50532912       1.21099616
Si       1.68868415       7.29662240       2.87203183
Si       1.68868415       6.33884459       5.23513725
Si       1.68868415       8.86424283       4.88304445
Si       2.50619384      -0.06639694       6.32528413
Si       2.50619384      -1.98884807       9.88507289
Si       2.50619384       2.05524500       9.77007003
Si       0.60542418      -0.00000000       8.66014235
16
Lattice="2.4386396010673765 -1.0806578155066622e-13 -1.8717547664095499e-13 -2.700729011351925e-13 14.675719565263874 -2.978493774500721e-15 -2.7007301558485574e-13 -7.33785978263194 12.70954596233483" Properties=species:S:1:pos:R:3 unique_starting_index=88 config_type=initial n_minim_iter=20 pbc="T T T"
Si       0.46855984       4.51851001       3.70850768
Si       0.46855984       8.29026664       6.94214767
Si       0.46855984       9.20480269       2.05889062
Si       0.15355881      13.48280077       1.61464075
Si       0.15355881       1.99477930       0.22577761
Si       0.15355881       6.53599927      10.86912761
Si       0.73265349       2.72981326       2.36057361
Si       0.73265349       8.01726986       9.16517153
Si       0.73265349      11.26649622       1.18380083
Si       1.63579087       7.12824097       2.81666949
Si       1.63579087       6.21304662       5.12797345
Si       1.63579087       8.67229174       4.76490303
Si       2.42822997      -0.06461236       6.19842628
Si       2.42822997      -1.93755899       9.66628876
Si       2.42822997       2.00217134       9.55437688
Si       0.58571133      -0.00000000       8.47303064
16
Lattice="2.5105069789123804 -1.4722327469268779e-13 -2.5499826330332887e-13 -3.7535726669996217e-13 14.881270892899057 -5.671112515043563e-15 -3.753574255109082e-13 -7.44063544644953 12.887558633848519" Properties=species:S:1:pos:R:3 unique_starting_index=88 config_type=initial n_minim_iter=21 pbc="T T T"
Si       0.48246442       4.57935633       3.75886088
Si       0.48246442       8.40622628       7.04228928
Si       0.48246442       9.33632372       2.08640848
Si       0.15810832      13.67427134       1.63628250
Si       0.15810832       2.02056198       0.22715103
Si       0.15810832       6.62707301      11.02412511
Si       0.75415484       2.76643413       2.39332007
Si       0.75415484       8.13009435       9.29509637
Si       0.75415484      11.42537785       1.19914221
Si       1.68396736       7.22389174       2.85527431
Si       1.68396736       6.30142966       5.20384772
Si       1.68396736       8.79658493       4.82843661
Si       2.49986125      -0.06542690       6.28435199
Si       2.49986125      -1.96551353       9.80204400
Si       2.49986125       2.03094042       9.68872128
Si       0.60276275      -0.00000000       8.59170576
16
Lattice="2.507679164490607 -2.0388956046790358e-13 -3.5314717690630134e-13 -5.206407398966885e-13 14.880008964993301 1.1361556775972418e-15 -5.206409599092413e-13 -7.4400044824966525 12.886465772224389" Properties=species:S:1:pos:R:3 unique_starting_index=88 config_type=initial n_minim_iter=22 pbc="T T T"
Si       0.48199133       4.57788277       3.75739210
Si       0.48199133       8.40506010       7.04320695
Si       0.48199133       9.33707057       2.08586673
Si       0.15798475      13.67416022       1.63472669
Si       0.15798475       2.01863921       0.22693229
Si       0.15798475       6.62721400      11.02480679
Si       0.75322050       2.76498630       2.39207051
Si       0.75322050       8.12910516       9.29588214
Si       0.75322050      11.42592198       1.19851312
Si       1.68203255       7.22094592       2.85546571
Si       1.68203255       6.30243735       5.20521031
Si       1.68203255       8.79663016       4.82578976
Si       2.49708006      -0.06534350       6.28478280
Si       2.49708006      -1.96455117       9.80066350
Si       2.49708006       2.02989466       9.68748525
Si       0.60197392      -0.00000000       8.59097718
16
Lattice="2.50680051987012 -2.8243002467297755e-13 -4.891832895636702e-13 -7.222820028887552e-13 14.883424725492185 -5.9152540970029e-16 -7.222823078442377e-13 -7.441712362746091 12.889423907589666" Properties=species:S:1:pos:R:3 unique_starting_index=88 config_type=initial n_minim_iter=23 pbc="T T T"
Si       0.48191623       4.57754405       3.75678880
Si       0.48191623       8.40641487       7.04676007
Si       0.48191623       9.34117816       2.08587503
Si       0.15799872      13.67870583       1.63328626
Si       0.15799872       2.01682684       0.22667404
Si       0.15799872       6.62960441      11.02946361
Si       0.75284585       2.76405897       2.39130639
Si       0.75284585       8.13061495       9.30002543
Si       0.75284585      11.43046316       1.19809209
Si       1.68139344       7.21958733       2.85664772
Si       1.68139344       6.30584819       5.20875401
Si       1.68139344       8.79970156       4.82402217
Si       2.49625046      -0.06525789       6.28737256
Si       2.49625046      -1.96405906       9.80225261
Si       2.49625046       2.02931694       9.68922264
Si       0.60161915      -0.00000000       8.59294927
