24
Lattice="8.108657872200538 -2.4775226190834667 -0.9425013370227017 0.5251308388272973 9.00964243149199 0.9534591721995946 0.8674142307095569 4.157854093487532 9.732944689817487" Properties=species:S:1:pos:R:3 unique_starting_index=94 config_type=initial n_minim_iter=1 energy=-3893.9772964960603 free_energy=-3893.9772964960603 pbc="T T T"
Si       8.54403819       6.43336246       7.77024999
Si       0.46481074       3.90385014       3.19884969
Si       1.38551060       7.73853558       0.99424306
Si       5.48294876      10.73548601       7.99763523
Si       4.97869235       1.80777071       0.63870233
Si       4.39441154       5.26838858       9.31964852
Si       5.20514080       1.77790167       2.53435905
Si       4.26111014       0.06175281       1.33413114
Si       7.40026955       1.63939825       6.02427713
Si       8.24762150       8.24908026       6.43527562
Si       3.87701753       7.17415098       9.21745920
Si       5.57650947       2.10335427       4.74741148
Si       2.51818082       6.58717005       3.07826207
Si       1.15652804       6.76966660       9.12968493
Si       5.87956645       4.42571591       4.56541230
Si       5.45909872       5.96570252       7.87036976
Si       3.73911667       3.45957514       8.61524666
Si       2.74001071       5.87652628       0.77967140
Si       8.43934563       3.55422712       2.57659311
Si       2.75624730       5.49289995       8.22578265
Si       7.84159619       5.30949101       3.78231921
Si       2.18475038       0.48555595       0.88692328
Si       3.62747410       9.21327001       8.23569681
Si       6.51138021       3.21892577       2.99932141
24
Lattice="8.194630835003755 -2.6111726720712887 -1.153483293614209 0.40779796333325524 9.037823693712749 1.3130586162909799 0.686199749348293 4.547339001607879 9.839294737429242" Properties=species:S:1:pos:R:3 unique_starting_index=94 config_type=initial n_minim_iter=2 stress="-0.007696066209346829 -0.00321810349560389 -0.001956159375354396 -0.00321810349560389 -0.00018348935649452976 0.003179502549579431 -0.001956159375354396 0.003179502549579431 0.003675979481294731" pbc="T T T"
Si       8.44559696       6.67081221       7.86628981
Si       0.30038503       4.04944122       3.38651514
Si       1.29588309       7.75853890       1.29823096
Si       5.27153009      10.99161454       8.26295130
Si       4.92159604       1.80574564       0.63857835
Si       4.20250682       5.52247690       9.43100590
Si       5.22353121       1.83299278       2.53563946
Si       4.25167246       0.03892686       1.26349924
Si       7.31424122       1.75589813       5.91664429
Si       8.09203792       8.45882033       6.59002064
Si       3.70872449       7.45214776       9.41180354
Si       5.54456917       2.23839187       4.75973142
Si       2.39456982       6.70531960       3.28498512
Si       0.97327792       7.13079820       9.33544812
Si       5.82597719       4.52582143       4.62138783
Si       5.33897751       6.22162479       8.00669543
Si       3.67321689       3.78387879       8.67285350
Si       2.67205227       5.91243020       0.96932520
Si       8.41852075       3.60047675       2.62356301
Si       2.59077516       5.80552017       8.36929519
Si       7.70997200       5.28928930       3.85008518
Si       2.11653709       0.49144879       0.85390586
Si       3.41466828       9.52983135       8.53916849
Si       6.48659230       3.27622522       3.07075616
24
Lattice="8.432636407269042 -2.622463333874807 -1.2253816702127538 0.42943509253502016 9.06289051639462 1.481373904671819 0.6738953356808939 4.750624508217878 9.77230459929702" Properties=species:S:1:pos:R:3 unique_starting_index=94 config_type=initial n_minim_iter=3 stress="0.006928800006306666 -0.0016803760218254153 -0.0048730485059844345 -0.0016803760218254153 -0.0006582704139414684 -8.497858409019141e-06 -0.0048730485059844345 -8.497858409019141e-06 -0.0009525829865764541" pbc="T T T"
Si       8.70565979       6.85962761       7.83834432
Si       0.23727088       4.13821751       3.45841794
Si       1.34675923       7.78412218       1.44101433
Si       5.41026488      11.16272248       8.29091862
Si       5.02091975       1.85420000       0.65166940
Si       4.29905099       5.67205025       9.37903341
Si       5.40607820       1.90082049       2.51293192
Si       4.35702972       0.04675116       1.21956576
Si       7.48874902       1.85179336       5.79422444
Si       8.30402003       8.64386923       6.59837128
Si       3.81207081       7.60434155       9.40077851
Si       5.71317203       2.34910336       4.72767763
Si       2.44977177       6.79333375       3.35384105
Si       0.99379089       7.32367043       9.32287903
Si       6.00783565       4.61370982       4.60126115
Si       5.49176125       6.39025460       7.99931121
Si       3.81299865       3.97559662       8.60666370
Si       2.75362854       5.96732391       1.05956893
Si       8.66678691       3.69932056       2.64763364
Si       2.63327720       5.99061140       8.34219307
Si       7.88218797       5.31343793       3.84626477
Si       2.11945473       0.50445632       0.83214295
Si       3.48795528       9.72954731       8.60360990
Si       6.68536860       3.35966029       3.10082875
24
Lattice="8.375363725632099 -2.609107196184031 -1.1826020382165225 0.46598814066347 9.091867810515891 1.5806387546401361 0.763748936631404 4.867674943658433 9.789674847926086" Properties=species:S:1:pos:R:3 unique_starting_index=94 config_type=initial n_minim_iter=4 stress="0.0025088413105899426 -0.0011419859895133125 0.002138015470507382 -0.0011419859895133125 0.00046563804933474374 0.003807368749173929 0.002138015470507382 0.003807368749173929 -0.0024816639183710782" pbc="T T T"
Si       8.76751273       6.99335330       7.95022420
Si       0.24277793       4.19312838       3.51466262
Si       1.37677046       7.81454524       1.53363196
Si       5.48572324      11.28426640       8.39989925
Si       4.98416636       1.89547060       0.70983919
Si       4.37778063       5.78931075       9.44302384
Si       5.42594536       1.95376947       2.56890731
Si       4.33746656       0.06189826       1.24718742
Si       7.49741635       1.92684984       5.83353112
Si       8.33802290       8.77919276       6.71865102
Si       3.90280147       7.70752503       9.47625326
Si       5.74341773       2.42750706       4.78883457
Si       2.47894944       6.85620489       3.43292523
Si       1.09692982       7.43919164       9.36935375
Si       6.04068072       4.68463375       4.67474985
Si       5.55472483       6.50381218       8.09241691
Si       3.90423493       4.08580224       8.64790810
Si       2.76588819       6.01301577       1.14030642
Si       8.66137196       3.78029876       2.76038633
Si       2.70164465       6.10675475       8.39594467
Si       7.87115585       5.35961803       3.94174266
Si       2.09542569       0.51612759       0.84399315
Si       3.56614690       9.86068817       8.71339637
Si       6.69989435       3.42704621       3.19834276
24
Lattice="8.2339763073854 -2.5500815630112514 -1.2541982193253804 0.5108701823768521 9.07841228788489 1.5891061829111621 0.7019740878860941 4.871340085897698 9.857655199738435" Properties=species:S:1:pos:R:3 unique_starting_index=94 config_type=initial n_minim_iter=5 stress="-0.002688292990136679 0.002728492772996233 -0.005402791661822578 0.002728492772996233 -0.012752875980859711 -0.0004023927028420195 -0.005402791661822578 -0.0004023927028420195 -0.003223846768062275" pbc="T T T"
Si       8.64900819       7.05541658       7.94189843
Si       0.17330472       4.21097051       3.58561549
Si       1.39913661       7.81212960       1.53109306
Si       5.41147079      11.29638231       8.37510129
Si       4.86906355       1.94956655       0.69078956
Si       4.27683262       5.81396040       9.49541604
Si       5.36506924       1.98953107       2.53647153
Si       4.24056682       0.06008234       1.22502767
Si       7.32504211       1.94254856       5.78990932
Si       8.20083864       8.86565741       6.67543217
Si       3.82834556       7.68186317       9.51638746
Si       5.65183175       2.46998053       4.79358810
Si       2.44864327       6.87702996       3.43914665
Si       1.07499872       7.43707888       9.42232516
Si       5.95220679       4.70546117       4.65530884
Si       5.45551931       6.52806369       8.12902064
Si       3.84488934       4.09915166       8.68757165
Si       2.75547386       6.05153874       1.12016675
Si       8.53111742       3.85906329       2.74090496
Si       2.62873957       6.13369913       8.44621392
Si       7.71766850       5.34933843       3.89106239
Si       2.02165373       0.51287459       0.82058491
Si       3.49827209       9.89305127       8.77058780
Si       6.61380975       3.47129630       3.20835024
24
Lattice="8.202914011566751 -2.596285423951366 -1.2562898034181735 0.5017040332141456 9.219019980796125 1.601734672530714 0.7035212701378395 4.9395961009138105 9.945559385404437" Properties=species:S:1:pos:R:3 unique_starting_index=94 config_type=initial n_minim_iter=6 stress="0.0005573465639855157 0.0012229398948788615 -0.003678556873935337 0.0012229398948788615 -0.0003185157050430893 -0.0006542936339417374 -0.003678556873935337 -0.0006542936339417374 0.00417188484815178" pbc="T T T"
Si       8.63447437       7.15796782       8.01903872
Si       0.13937880       4.28543055       3.64029883
Si       1.38653358       7.93408227       1.54065165
Si       5.38958933      11.45752362       8.43039431
Si       4.83037268       1.98691482       0.71292163
Si       4.26784544       5.89293443       9.58902482
Si       5.35972652       2.01380256       2.55501519
Si       4.21702869       0.03951770       1.24321354
Si       7.29208983       1.94675169       5.83503863
Si       8.16159813       9.01289655       6.72562000
Si       3.81701891       7.77918627       9.60341565
Si       5.64166721       2.50327188       4.84420562
Si       2.43074466       6.98711967       3.47175007
Si       1.08388460       7.54379855       9.50161880
Si       5.93241880       4.76447607       4.69964050
Si       5.43944717       6.61529673       8.21495608
Si       3.85467352       4.14713496       8.77057318
Si       2.74040738       6.15774999       1.12758429
Si       8.49756504       3.92053579       2.78410652
Si       2.62020268       6.22792577       8.52744223
Si       7.67243730       5.40073037       3.92278894
Si       2.00042709       0.50928725       0.82074836
Si       3.47935423      10.04800412       8.85951089
Si       6.59908785       3.51601495       3.25922344
24
Lattice="8.146284118702233 -2.619398350794342 -1.2272959060580981 0.48664884316111023 9.254514511531275 1.6020709310204966 0.7223754201947625 4.956787537230978 9.91724688768541" Properties=species:S:1:pos:R:3 unique_starting_index=94 config_type=initial n_minim_iter=7 stress="-0.006643932615106085 -0.0006439666400282874 -0.003438145463870855 -0.0006439666400282874 -0.0002884775487836301 -0.0009739871698894613 -0.003438145463870855 -0.0009739871698894613 -0.012450579936732592" pbc="T T T"
Si       8.60582365       7.17739114       8.02132602
Si       0.11057876       4.31390100       3.65386919
Si       1.36573873       7.96542281       1.53844945
Si       5.36187224      11.48803342       8.40344792
Si       4.78149500       1.99708898       0.74257528
Si       4.26206421       5.90516258       9.57900729
Si       5.34066997       2.01176438       2.55231061
Si       4.18384219       0.01610676       1.25458396
Si       7.25126779       1.92869003       5.82854899
Si       8.10635988       9.05303961       6.71798454
Si       3.80633479       7.79675092       9.58658236
Si       5.62102289       2.50770837       4.84539175
Si       2.40842570       7.01694380       3.47222841
Si       1.10564921       7.56900844       9.47308790
Si       5.89854881       4.76692293       4.70450791
Si       5.41906753       6.62715683       8.21742788
Si       3.86684351       4.15428603       8.76093219
Si       2.71471872       6.19111877       1.13146333
Si       8.44157123       3.92888633       2.81194256
Si       2.62005233       6.25289763       8.51521598
Si       7.61220529       5.39215755       3.92774183
Si       1.97998378       0.49841058       0.81255632
Si       3.46226110      10.08915030       8.85476109
Si       6.56791384       3.51392127       3.28530069
24
Lattice="8.090511694426613 -2.601569424083784 -1.1417688035011526 0.5078870506687536 9.21948178253414 1.651001049339424 0.8549352216326994 4.96603906285923 10.122846992189297" Properties=species:S:1:pos:R:3 unique_starting_index=94 config_type=initial n_minim_iter=8 stress="-0.008213114226046017 -0.0017228616786555846 0.01408955145989151 -0.0017228616786555846 -0.007987096064929467 -0.0049467673418598776 0.01408955145989151 -0.0049467673418598776 -0.0008431990235528525" pbc="T T T"
Si       8.72937746       7.19859604       8.29620415
Si       0.06634327       4.34385644       3.80035680
Si       1.37543434       7.94377668       1.57967149
Si       5.46202369      11.45354824       8.58936449
Si       4.72857998       2.02121302       0.86069290
Si       4.38261586       5.90459487       9.84697762
Si       5.39392869       2.01615729       2.65534994
Si       4.15785639      -0.02428412       1.34022271
Si       7.28262920       1.90908042       6.01168355
Si       8.14960898       9.09466832       6.92343872
Si       3.91154892       7.78388362       9.82868855
Si       5.67833787       2.53174913       5.00701131
Si       2.43478563       7.01816731       3.58416719
Si       1.26588754       7.56147367       9.66782444
Si       5.93333878       4.74783901       4.88266937
Si       5.51477738       6.61627648       8.48409457
Si       4.01790284       4.16693046       9.00679666
Si       2.72186726       6.20935436       1.18731502
Si       8.44608586       3.94486389       3.00881590
Si       2.73030337       6.26888314       8.73601208
Si       7.60611932       5.34660114       4.08903818
Si       1.95990083       0.47173872       0.81797964
Si       3.55756515      10.09758727       9.11132143
Si       6.61164541       3.49576332       3.48449266
24
Lattice="8.039755564152369 -2.5707247807603757 -1.2363503796200768 0.6000088695070653 9.35723904960129 1.9105461874534546 0.886932239832251 5.28179940239257 10.455457451215638" Properties=species:S:1:pos:R:3 unique_starting_index=94 config_type=initial n_minim_iter=9 stress="-0.011649361445794466 0.001004998973021982 0.017923861397361726 0.001004998973021982 -0.0017468977186182177 0.002652689618827649 0.017923861397361726 0.002652689618827649 -0.0029675085089335375" pbc="T T T"
Si       8.85216234       7.60378042       8.62726367
Si      -0.05072978       4.54999405       4.10635741
Si       1.44018450       8.08661841       1.77434206
Si       5.56549741      11.81153418       8.93918538
Si       4.66935141       2.14909497       0.98193348
Si       4.43658524       6.25500393      10.23692292
Si       5.46436962       2.16019744       2.72262427
Si       4.09901053      -0.02820428       1.36157477
Si       7.24855534       2.09914186       6.12971508
Si       8.19090095       9.52329078       7.20723714
Si       3.94435412       8.13945344      10.21505779
Si       5.70178461       2.76448687       5.14281340
Si       2.47743597       7.23370638       3.83478998
Si       1.38253640       7.88941982      10.03687541
Si       5.94616211       4.94981433       5.10174286
Si       5.56368261       6.93491921       8.86391859
Si       4.10765632       4.47740123       9.32763958
Si       2.78380967       6.39143808       1.34535087
Si       8.46919547       4.16355330       3.19040922
Si       2.78565531       6.60283535       9.09561830
Si       7.59534164       5.52601238       4.26082511
Si       1.92491901       0.46626694       0.77911703
Si       3.61851488      10.50090992       9.59283992
Si       6.66655433       3.64540313       3.69924399
24
Lattice="8.05462687582734 -2.5990740300334707 -1.3195211349419034 0.5836543322491468 9.414286425684834 1.966734566534479 0.8223016910648503 5.344672816761576 10.704402988603096" Properties=species:S:1:pos:R:3 unique_starting_index=94 config_type=initial n_minim_iter=10 stress="-0.004661424181050699 -0.0019206658600992967 0.018630509273200247 -0.0019206658600992967 0.00697264206477974 0.0008783708239967277 0.018630509273200247 0.0008783708239967277 0.005742743999241791" pbc="T T T"
Si       8.89255354       7.69266510       8.77295895
Si      -0.23281703       4.65890037       4.33608889
Si       1.40995995       8.15110530       1.77774121
Si       5.52841466      11.86464309       9.03433001
Si       4.61975808       2.17477927       1.03954944
Si       4.40311684       6.34342771      10.51222813
Si       5.51650547       2.17889508       2.73039335
Si       4.05039036      -0.12102358       1.36754149
Si       7.21291540       2.07957856       6.20396749
Si       8.13749002       9.65227851       7.25925882
Si       3.83975135       8.23300180      10.43418091
Si       5.66103318       2.80335338       5.18532462
Si       2.43620270       7.30669221       3.92917055
Si       1.38213641       7.95809765      10.26395227
Si       5.88755224       4.95293552       5.21142940
Si       5.50928065       6.97345288       9.10296148
Si       4.10150195       4.53033643       9.57544321
Si       2.78671083       6.48298104       1.35496783
Si       8.47319811       4.17110813       3.22500759
Si       2.75175347       6.68277141       9.33377084
Si       7.55619379       5.54548900       4.29760214
Si       1.91695176       0.41027786       0.70327715
Si       3.53815753      10.61543527       9.86197684
Si       6.69872004       3.60562664       3.78629743
24
Lattice="8.06510580067824 -2.5582255800895983 -1.38687859630193 0.6270438444268591 9.418997927748082 1.9994641874117345 0.7820496240725685 5.38233173803909 10.76484206822189" Properties=species:S:1:pos:R:3 unique_starting_index=94 config_type=initial n_minim_iter=11 stress="-0.0038441285129125788 0.0037051573825305426 0.012577436025217138 0.0037051573825305426 0.005993582538049415 -0.002266808771982471 0.012577436025217138 -0.002266808771982471 0.010204675253616643" pbc="T T T"
Si       8.93331498       7.77860500       8.76888457
Si      -0.29716776       4.69421676       4.42492531
Si       1.43995379       8.16448927       1.77960851
Si       5.55427742      11.90585679       9.03772986
Si       4.62126205       2.20246369       1.04095329
Si       4.38554646       6.40580105      10.57671545
Si       5.54640972       2.22455508       2.71392450
Si       4.03196777      -0.13194339       1.34380404
Si       7.19183367       2.13486508       6.18136468
Si       8.16093855       9.73116087       7.22812516
Si       3.80519231       8.30118561      10.47803116
Si       5.64100812       2.84748354       5.16614282
Si       2.44988694       7.33768075       3.95298296
Si       1.38737574       7.99388447      10.32404597
Si       5.88218982       4.98318676       5.21666919
Si       5.49876858       7.02182311       9.14846942
Si       4.08638773       4.58947811       9.63202922
Si       2.82970533       6.51939867       1.35522222
Si       8.50122837       4.21797360       3.19489013
Si       2.74494877       6.72947799       9.39070437
Si       7.56703161       5.59202165       4.27458412
Si       1.92174811       0.40276959       0.66017108
Si       3.53147931      10.67340955       9.93659720
Si       6.73644041       3.63401152       3.77483796
24
Lattice="8.431005358491989 -2.731853095575166 -1.6387978092847377 0.40454543780126084 9.2766078213853 2.1702677924899842 0.46497338238832076 5.498455680590112 10.7623855213638" Properties=species:S:1:pos:R:3 unique_starting_index=94 config_type=initial n_minim_iter=12 stress="0.0014381520676288843 -0.007764573413360022 -0.004663728608772758 -0.007764573413360022 0.007308896085926926 0.00039017481930205114 -0.004663728608772758 0.00039017481930205114 -0.000996129507182737" pbc="T T T"
Si       8.93927244       7.62720723       8.60510758
Si      -0.55210940       4.70098937       4.54359018
Si       1.25328924       8.02359171       1.85989788
Si       5.30748487      11.73894137       9.04657757
Si       4.72140282       2.03841713       0.97190680
Si       4.18959883       6.45519616      10.54316753
Si       5.64668056       2.13660822       2.62960061
Si       4.13078056      -0.24653185       1.21405972
Si       7.26300511       2.10208753       5.99677695
Si       8.09939841       9.49921145       7.09957142
Si       3.48597036       8.34742195      10.45761306
Si       5.61553807       2.75534500       4.98489270
Si       2.28439168       7.23314887       4.00893075
Si       1.08048476       8.03782883      10.37648514
Si       5.83862298       4.83886471       5.13960834
Si       5.32784073       6.95021915       9.10271557
Si       3.90668830       4.65101691       9.59805471
Si       2.78364618       6.37330900       1.40345800
Si       8.65734340       3.96876208       3.00501278
Si       2.53747360       6.73680074       9.39698388
Si       7.62610718       5.43872653       4.16697001
Si       2.00325763       0.34194118       0.56301323
Si       3.19923511      10.61683588      10.01300569
Si       6.83808347       3.49041953       3.64370085
24
Lattice="8.520460762124468 -2.6518833127320325 -1.705101921810702 0.49848140896075005 9.256425922631804 2.2842613570795347 0.478313423496217 5.614189993857711 10.822515018312679" Properties=species:S:1:pos:R:3 unique_starting_index=94 config_type=initial n_minim_iter=13 stress="0.0060799475428681945 0.00013641878893814202 -0.005192314472599344 0.00013641878893814202 0.012016025188417156 0.007376865867000279 -0.005192314472599344 0.007376865867000279 0.0012650678930374777" pbc="T T T"
Si       9.12163681       7.79478819       8.64747410
Si      -0.55174178       4.71070065       4.62207555
Si       1.33513631       8.01312781       1.93016792
Si       5.46050599      11.84010434       9.15836067
Si       4.81891097       2.08532272       1.00517791
Si       4.24530052       6.60987583      10.59363118
Si       5.73451829       2.23407711       2.65496461
Si       4.17000942      -0.22099332       1.19280882
Si       7.34905717       2.26528839       5.99341831
Si       8.28371708       9.61188989       7.15286088
Si       3.54933472       8.49364100      10.53840098
Si       5.66655050       2.84874268       4.96682887
Si       2.36631019       7.26807023       4.08172234
Si       1.15102556       8.13920051      10.47101255
Si       5.92849703       4.92552611       5.18197842
Si       5.42443372       7.08226743       9.17273678
Si       3.95017910       4.81800742       9.67225632
Si       2.89466548       6.38869919       1.46784132
Si       8.80712125       4.05774668       3.00467149
Si       2.62492729       6.84302679       9.47219672
Si       7.76477319       5.55583690       4.20683371
Si       2.04652031       0.35812499       0.54230530
Si       3.29789930      10.72685634      10.14120937
Si       6.95890376       3.59676898       3.66262503
24
Lattice="8.56144470824777 -2.6040086856373597 -1.7294164464750261 0.5486385029510573 9.249040249871648 2.2793092020253916 0.4686500965824815 5.621397326772373 10.722603445679603" Properties=species:S:1:pos:R:3 unique_starting_index=94 config_type=initial n_minim_iter=14 stress="0.0007659494939073846 0.002223187702262219 -0.004947276602813277 0.002223187702262219 0.009004830355075447 0.0018809311064880787 -0.004947276602813277 0.0018809311064880787 0.004848610311933206" pbc="T T T"
Si       9.23931867       7.85967920       8.51407130
Si      -0.60699816       4.68452465       4.63821834
Si       1.36899218       8.00957332       1.88289490
Si       5.52890369      11.85273015       9.03648500
Si       4.85126663       2.09230646       1.00074902
Si       4.25140400       6.65185384      10.49031998
Si       5.79483064       2.29585606       2.64595798
Si       4.17321773      -0.26354816       1.16303453
Si       7.36411719       2.32813120       5.89158521
Si       8.37528996       9.65234602       7.01444504
Si       3.54765022       8.53541331      10.43096740
Si       5.66913879       2.86141943       4.85336825
Si       2.39467752       7.28077648       4.03235552
Si       1.20550943       8.14221124      10.37815644
Si       5.95261730       4.93400721       5.12775226
Si       5.46229382       7.10726326       9.08849699
Si       3.96148123       4.89199232       9.63052945
Si       2.96602504       6.41664855       1.44544002
Si       8.88110180       4.08828266       2.93557867
Si       2.68053517       6.85400204       9.38346021
Si       7.81526008       5.60252993       4.14260144
Si       2.06332630       0.34560361       0.50596591
Si       3.32123973      10.76089415      10.07614743
Si       7.02835521       3.64363503       3.63044843
24
Lattice="8.775712619409992 -2.5888220450214336 -1.7562346649136762 0.5529788347043961 9.120187497695353 2.4179350637619517 0.4981449416188256 5.705610040118533 10.767740857328626" Properties=species:S:1:pos:R:3 unique_starting_index=94 config_type=initial n_minim_iter=15 stress="0.010037358440417804 0.002862085707977482 -0.005192770440961521 0.002862085707977482 -1.0050137112997441e-05 -0.001304342451096739 -0.005192770440961521 -0.001304342451096739 0.010582618376607823" pbc="T T T"
Si       9.59101878       7.89514466       8.56066619
Si      -0.73655536       4.62563344       4.78850433
Si       1.37149108       7.89310764       1.92886740
Si       5.67457577      11.77311845       9.12902433
Si       4.97526345       2.04504334       1.10180237
Si       4.35391914       6.75564836      10.63317219
Si       5.96866756       2.34502451       2.71821474
Si       4.25380099      -0.35721697       1.15321161
Si       7.52105380       2.41412850       5.86429286
Si       8.61808464       9.60434721       7.05511795
Si       3.60449457       8.58099402      10.51867899
Si       5.76909271       2.85339453       4.80119512
Si       2.42566713       7.22889557       4.09972831
Si       1.34100872       8.16168454      10.46192883
Si       6.07363187       4.88700604       5.21617187
Si       5.62938012       7.12990428       9.18703033
Si       4.08532312       5.04405756       9.77058808
Si       3.07754780       6.36909845       1.52832425
Si       9.11766517       4.03980955       2.98127175
Si       2.80869598       6.88684150       9.43538288
Si       7.98020510       5.57633119       4.21843571
Si       2.10922602       0.30091362       0.47871415
Si       3.37378575      10.78521595      10.26424131
Si       7.26229821       3.67587518       3.74633351
24
Lattice="8.824290260898097 -2.599106517905739 -1.7844446313244104 0.5465543789021385 9.08582149346402 2.5527844168455625 0.5106969648276349 5.8249453357997005 10.854016183678429" Properties=species:S:1:pos:R:3 unique_starting_index=94 config_type=initial n_minim_iter=16 stress="0.012655330422741237 0.0038048166824037975 -0.007518485796381816 0.0038048166824037975 -0.0012893530189824073 -0.0005878975789182443 -0.007518485796381816 -0.0005878975789182443 0.011619721562945056" pbc="T T T"
Si       9.75639213       7.99382484       8.64030012
Si      -0.86724954       4.62916150       4.95688029
Si       1.35645662       7.86104607       1.98203899
Si       5.71131247      11.80151024       9.24034309
Si       4.99529899       2.02883657       1.20196286
Si       4.37899351       6.90716614      10.80356270
Si       6.02967807       2.40031747       2.78904848
Si       4.25662474      -0.44357290       1.15398884
Si       7.52760801       2.49006724       5.84885004
Si       8.68787279       9.64942105       7.13068495
Si       3.60064035       8.67460771      10.64333213
Si       5.77314545       2.87075227       4.77746742
Si       2.40864808       7.24761970       4.17280063
Si       1.44412946       8.24436687      10.57751672
Si       6.08204508       4.87989363       5.31807469
Si       5.66833037       7.20862737       9.33538937
Si       4.14435332       5.19816596       9.91552301
Si       3.12581522       6.39000928       1.61051263
Si       9.17933035       4.03451983       3.04317761
Si       2.87870120       6.97835282       9.52433779
Si       7.98075175       5.58143736       4.29971686
Si       2.08498674       0.25615002       0.46338770
Si       3.35493713      10.90610255      10.48419042
Si       7.35747899       3.74076184       3.88983394
24
Lattice="8.603621600305337 -2.5039478456411715 -1.5927642622893503 0.6320152598892959 9.034162336963188 2.443219241333678 0.7160266846693724 5.6857456164375115 10.790313074050362" Properties=species:S:1:pos:R:3 unique_starting_index=94 config_type=initial n_minim_iter=17 stress="0.008999843178665186 0.0031397591536418503 -0.004627001339417736 0.0031397591536418503 -0.003919013119462095 -0.0038936399946352036 -0.004627001339417736 -0.0038936399946352036 0.00810620757340202" pbc="T T T"
Si       9.80212408       7.96720723       8.66896155
Si      -0.77754862       4.50849419       4.92293693
Si       1.40833753       7.82418186       1.85308013
Si       5.82923679      11.71401959       9.17219693
Si       4.95554746       2.01351534       1.30101380
Si       4.50276424       6.82066169      10.85836411
Si       5.93792199       2.42254878       2.88249150
Si       4.18609394      -0.46202220       1.24581770
Si       7.45730834       2.49358461       5.89145553
Si       8.72351490       9.59098381       7.15592924
Si       3.75051537       8.56308891      10.60107636
Si       5.74385454       2.82310882       4.77650386
Si       2.45992925       7.19647755       4.07316212
Si       1.70008265       8.09875757      10.49616986
Si       6.05645227       4.81486984       5.38967010
Si       5.74545935       7.12803332       9.35824980
Si       4.25157633       5.12189387       9.93481161
Si       3.15700025       6.39798113       1.57400558
Si       9.06367687       4.03159797       3.13787493
Si       3.06220172       6.86968798       9.45804264
Si       7.90936913       5.60075736       4.38397224
Si       2.02405252       0.24304988       0.52900502
Si       3.50239386      10.80974679      10.43160097
Si       7.31746852       3.77805226       4.03391694
24
Lattice="8.488290898268007 -2.535759941879079 -1.4942582379521043 0.5930263562350805 9.001742267804294 2.461714304848545 0.8099952233731408 5.674385366038233 10.857856605484725" Properties=species:S:1:pos:R:3 unique_starting_index=94 config_type=initial n_minim_iter=18 stress="-0.00456241397233278 -0.004187955661158165 -0.00042722319530354256 -0.004187955661158165 -0.013974014434711904 -0.003782460909275502 -0.00042722319530354256 -0.003782460909275502 0.0034495399351442343" pbc="T T T"
Si       9.77466899       7.92465111       8.80506467
Si      -0.79009700       4.49775880       4.99911988
Si       1.36459330       7.79546442       1.84671028
Si       5.80313929      11.66037723       9.25258176
Si       4.88949585       1.97059083       1.39195232
Si       4.53371750       6.77871884      11.01255130
Si       5.87695957       2.39166292       2.95764305
Si       4.14121277      -0.50520294       1.30655766
Si       7.39371138       2.44930755       5.94804749
Si       8.65769734       9.53482897       7.29759657
Si       3.78691214       8.52071581      10.70697304
Si       5.71305004       2.78880462       4.85861873
Si       2.41881853       7.17065984       4.08411774
Si       1.81186407       8.06755322      10.57027930
Si       6.00769515       4.74196704       5.50638933
Si       5.73704961       7.08880485       9.50390714
Si       4.31352533       5.10128522      10.04070397
Si       3.11044675       6.39323943       1.61525279
Si       8.95206062       3.97368562       3.26797581
Si       3.13316041       6.85463280       9.54545376
Si       7.80058150       5.54978721       4.50581712
Si       1.96211494       0.21294556       0.56816896
Si       3.50417266      10.79564614      10.55435839
Si       7.27382553       3.75210011       4.19571801
24
Lattice="8.39091784575148 -2.4555542884270323 -1.286676647502502 0.6991615225103704 9.023544092735461 2.395070367449887 1.0644833849341684 5.614211005893671 10.797633880745877" Properties=species:S:1:pos:R:3 unique_starting_index=94 config_type=initial n_minim_iter=19 stress="-0.025008999882957694 -0.003958693258534244 0.017932537119390076 -0.003958693258534244 -0.003916075268227776 -0.0021858792496865275 0.017932537119390076 -0.0021858792496865275 -0.014440876953520072" pbc="T T T"
Si       9.96129318       7.98833791       8.88883879
Si      -0.66713001       4.44808108       4.97553364
Si       1.45757020       7.83116889       1.77773838
Si       6.04270071      11.70169009       9.24106087
Si       4.90972611       1.97176940       1.47885798
Si       4.75573850       6.75540410      11.06520164
Si       5.88145288       2.42545801       3.03372779
Si       4.13816911      -0.48174570       1.40020792
Si       7.46136518       2.48049707       5.99445337
Si       8.85040273       9.58675371       7.41709217
Si       4.05537762       8.50196069      10.69582669
Si       5.78392824       2.80401125       4.93485514
Si       2.52636134       7.18633108       4.01425088
Si       2.11340581       8.02322698      10.51710375
Si       6.10401787       4.73598771       5.60318011
Si       5.92104053       7.09522587       9.56498998
Si       4.52429281       5.07477095      10.04045531
Si       3.18622805       6.45502532       1.62579868
Si       8.97577201       4.02989715       3.41021988
Si       3.40285780       6.84639209       9.53555896
Si       7.87961720       5.65322879       4.64049800
Si       1.93582263       0.21533987       0.63307068
Si       3.76402909      10.80390327      10.52424050
Si       7.35709740       3.80304194       4.33879819
24
Lattice="8.431253458741171 -2.423622132239978 -1.2450266824117795 0.7436170935575823 9.03100306121698 2.3880729536880896 1.1326986752350348 5.612039668629841 10.782122231979956" Properties=species:S:1:pos:R:3 unique_starting_index=94 config_type=initial n_minim_iter=20 stress="-0.005959573211562859 0.001116797372839552 0.015887025992382897 0.001116797372839552 -0.0014214012989672647 -0.0006928794021743674 0.015887025992382897 -0.0006928794021743674 -0.0075849331641633655" pbc="T T T"
Si      10.09548665       8.03254532       8.89715777
Si      -0.65532855       4.44106847       4.98947149
Si       1.50747793       7.84632188       1.76151300
Si       6.16126299      11.73190013       9.23168723
Si       4.94844904       1.97299439       1.49619442
Si       4.83858209       6.76027005      11.08274729
Si       5.93205580       2.44692658       3.04533856
Si       4.16257336      -0.47036621       1.41831969
Si       7.52765552       2.50134661       5.97793696
Si       8.98254527       9.62424494       7.45148720
Si       4.16425340       8.51681810      10.69699899
Si       5.84422406       2.81933418       4.94866819
Si       2.57646008       7.19871782       3.98978088
Si       2.21551362       8.02502488      10.50762192
Si       6.17691886       4.73968940       5.62900526
Si       6.00523665       7.11285074       9.59087513
Si       4.61385689       5.08218902      10.03305424
Si       3.24326307       6.48480649       1.63200110
Si       9.07116573       4.06139696       3.43165114
Si       3.51140207       6.86519812       9.54015621
Si       7.95969955       5.69382703       4.67051891
Si       1.94397409       0.21515463       0.64146888
Si       3.86444198      10.82774680      10.52581522
Si       7.43121837       3.83587164       4.38856349
24
Lattice="8.50135170234009 -2.4610622725281757 -1.3536942129705558 0.6864523843566078 9.003639488320328 2.396970959492515 1.0003645977490303 5.5985609440535535 10.901871215279728" Properties=species:S:1:pos:R:3 unique_starting_index=94 config_type=initial n_minim_iter=21 stress="-0.006818914581980035 -0.007139498608512378 -0.004996380298713304 -0.007139498608512378 -0.002433037650210945 -0.0001551781458927608 -0.004996380298713304 -0.0001551781458927608 -0.014919575496578075" pbc="T T T"
Si      10.00485281       7.97303099       8.84660687
Si      -0.75023073       4.42560948       5.08642658
Si       1.49658180       7.83404320       1.73501136
Si       6.05750374      11.70221529       9.26110962
Si       4.94662579       1.90637772       1.43625452
Si       4.68592670       6.67551360      11.17384014
Si       5.90514405       2.39372483       2.98220870
Si       4.15336123      -0.45888951       1.38233308
Si       7.48230899       2.45020660       5.90028379
Si       8.95121379       9.55841049       7.49798154
Si       4.09953705       8.50191267      10.80075854
Si       5.79169081       2.76960913       4.93045339
Si       2.51377976       7.16331459       3.94221900
Si       2.09456699       8.00358033      10.62868278
Si       6.11453091       4.67369712       5.66865551
Si       5.84797593       7.05818529       9.69088910
Si       4.50529810       5.03423126      10.07194088
Si       3.22847426       6.47362971       1.60789221
Si       9.05578302       3.99808154       3.35126782
Si       3.46264845       6.85719070       9.64219470
Si       7.92426594       5.66485732       4.64439055
Si       1.95451057       0.20254985       0.62932230
Si       3.74092831      10.79464404      10.60577589
Si       7.42711387       3.80947652       4.36744526
