14
Lattice="6.8537153145657825 0.1070655788629259 0.9850205585588588 2.9940475075004227 7.863526905069959 -0.8663396988482794 1.8453606336756452 0.6141416407875756 6.8328362755174865" Properties=species:S:1:pos:R:3 unique_starting_index=86 config_type=initial n_minim_iter=1 energy=-2277.821568397627 free_energy=-2277.821568397627 pbc="T T T"
Si       7.54432423       4.31567089       5.16328809
Si       7.58862593       1.83259621       4.17180295
Si       5.41666775       4.36968311       2.42675920
Si       8.82250722       3.28636719       2.76090525
Si       5.66824732       5.03999750       6.26180526
Si       3.13742195       2.01825154      -0.03839622
Si       3.32149063       5.47391722       1.62043552
Si       8.63969570       2.11319202       6.27012226
Si       5.30518492       2.72661007       0.68795365
Si       6.44496530       6.61522383       4.73331574
Si       3.41153602       0.87658698       6.53852854
Si       7.66788744       5.41506638       3.03925535
Si       5.61853282       3.08889151       4.47870685
Si       3.68852504       7.71389020       0.92450674
14
Lattice="6.8561924431299 0.09715878809249816 0.9901337548494479 2.9816914649263606 7.851664947577593 -0.8551324551322123 1.8497808289131585 0.6186667588720691 6.835521916637785" Properties=species:S:1:pos:R:3 unique_starting_index=86 config_type=initial n_minim_iter=2 stress="4.1994618796037446e-05 -0.00035532261336923175 0.00017943676061457094 -0.00035532261336923175 -0.0002721508380541152 0.0003902267931492216 0.00017943676061457094 0.0003902267931492216 -0.00019508660779084225" pbc="T T T"
Si       7.54283079       4.30596298       5.17388175
Si       7.59195679       1.82302467       4.18018183
Si       5.41318810       4.36009079       2.43709139
Si       8.82071937       3.27371887       2.77235587
Si       5.66613408       5.03525410       6.27398108
Si       3.13448164       2.01129929      -0.03416636
Si       3.31494953       5.46654902       1.62904159
Si       8.64039867       2.10582684       6.27946863
Si       5.30456884       2.71654299       0.69293002
Si       6.44097048       6.60551547       4.74554839
Si       3.41637036       0.87732877       6.54215089
Si       7.66381658       5.40177940       3.05038390
Si       5.61884423       3.08346453       4.48650492
Si       3.67689734       7.70265725       0.93695627
14
Lattice="6.858182467754322 0.09208915794576857 0.9927152050751414 2.977166815453836 7.8538486027103955 -0.8605805571777841 1.8508117710046 0.613950474839386 6.8473355146885195" Properties=species:S:1:pos:R:3 unique_starting_index=86 config_type=initial n_minim_iter=3 stress="0.0012139923651118773 -0.0005317654018809183 7.508220043974339e-05 -0.0005317654018809183 0.0009435036266196746 -0.00026525967229026453 7.508220043974339e-05 -0.00026525967229026453 0.001665157728154062" pbc="T T T"
Si       7.54122756       4.29915895       5.18042759
Si       7.59675082       1.81291589       4.18953234
Si       5.41303097       4.35575146       2.44295907
Si       8.81817371       3.27108316       2.77986259
Si       5.66486931       5.03350740       6.28924276
Si       3.13198785       2.00948966      -0.03576348
Si       3.31297525       5.46612372       1.62855902
Si       8.63254385       2.09984212       6.29105486
Si       5.31013240       2.71344745       0.68621295
Si       6.44430647       6.60261333       4.74867267
Si       3.41903477       0.86951634       6.55141434
Si       7.66368429       5.39654956       3.05013475
Si       5.62128319       3.08071588       4.49271017
Si       3.66924758       7.70213939       0.93751122
14
Lattice="6.851484798545259 0.09398268334795537 0.991583716381704 2.9764402963665604 7.849215335932303 -0.8592685844568242 1.8489808882463867 0.6145346993766145 6.840795346190089" Properties=species:S:1:pos:R:3 unique_starting_index=86 config_type=initial n_minim_iter=4 stress="-0.0002184046572736736 -0.00027918704920152314 7.414395975381711e-05 -0.00027918704920152314 -0.0006029225447673281 -0.00038811022713042 7.414395975381711e-05 -0.00038811022713042 -0.00015166072732288678" pbc="T T T"
Si       7.53438587       4.29841345       5.17522410
Si       7.59065289       1.81296443       4.18611437
Si       5.40915291       4.35389628       2.44173646
Si       8.80942282       3.27250064       2.77821577
Si       5.66056310       5.03305215       6.28541307
Si       3.12885367       2.00889051      -0.03587580
Si       3.31141295       5.46333424       1.62715029
Si       8.62175175       2.10169470       6.28518801
Si       5.30723707       2.71322055       0.68347675
Si       6.44140609       6.60032943       4.74371441
Si       3.41593237       0.86971272       6.54453403
Si       7.65784404       5.39482662       3.04633285
Si       5.61734679       3.08103404       4.48829172
Si       3.66663492       7.69761547       0.93774555
14
Lattice="6.850813789047105 0.10131536913792039 0.9903715574773476 2.9829549674707323 7.85930970005143 -0.8481303204769524 1.8483504854964705 0.6265484589232803 6.838782099577951" Properties=species:S:1:pos:R:3 unique_starting_index=86 config_type=initial n_minim_iter=5 stress="-9.695138399553994e-05 7.868428598899882e-05 -0.00010709395729581022 7.868428598899882e-05 0.0003265798055198368 0.00041105606373078294 -0.00010709395729581022 0.00041105606373078294 -0.0002143513476116388" pbc="T T T"
Si       7.53606820       4.31697186       5.17790295
Si       7.59152685       1.82623815       4.18663584
Si       5.41219189       4.36615001       2.44672812
Si       8.81021540       3.28861166       2.78158399
Si       5.66376357       5.05360029       6.29121845
Si       3.12963517       2.01397525      -0.03346519
Si       3.31588268       5.47436333       1.63405409
Si       8.62025928       2.11979538       6.28486816
Si       5.30966931       2.72281714       0.68478335
Si       6.44762607       6.61962091       4.74964005
Si       3.41483287       0.88265442       6.54237110
Si       7.66144721       5.41142558       3.05074241
Si       5.61984301       3.09590170       4.48995337
Si       3.67162504       7.71051998       0.94798778
14
Lattice="6.866528130163337 0.11158516543771328 1.009212236761872 2.9978625823219978 7.846092265236081 -0.8372407416217352 1.8695801655738251 0.632397108227067 6.856967141760506" Properties=species:S:1:pos:R:3 unique_starting_index=86 config_type=initial n_minim_iter=6 stress="0.0005351891337667136 0.001061830912401368 0.0004738622138408739 0.001061830912401368 -0.0005402333664969875 -7.137317935345663e-05 0.0004738622138408739 -7.137317935345663e-05 0.0004888645036454572" pbc="T T T"
Si       7.56399205       4.32212344       5.20570130
Si       7.62121047       1.82611742       4.21735509
Si       5.43546969       4.35992311       2.46563246
Si       8.83441856       3.30272721       2.81768116
Si       5.70149771       5.06448889       6.33296881
Si       3.13290717       2.01788133      -0.02311884
Si       3.33714609       5.46588907       1.65205745
Si       8.65041319       2.12179376       6.32264851
Si       5.32508559       2.73961487       0.69482870
Si       6.49562775       6.61370869       4.77367535
Si       3.43168509       0.88929346       6.56214934
Si       7.69159441       5.41093564       3.07072003
Si       5.65620808       3.10025842       4.51394402
Si       3.68455242       7.70027878       0.96249889
14
Lattice="6.856669136236357 0.08754645210012806 1.00224784860404 2.967117152010216 7.850009067544538 -0.8394871591751699 1.8586426037348243 0.6271392282876659 6.851873618492567" Properties=species:S:1:pos:R:3 unique_starting_index=86 config_type=initial n_minim_iter=7 stress="-0.00011778803112216145 -5.894545887066938e-05 -0.0006864759335499585 -5.894545887066938e-05 0.0003288425638182553 -0.00028477300132162417 -0.0006864759335499585 -0.00028477300132162417 -0.00014640590134970817" pbc="T T T"
Si       7.52986907       4.30349887       5.19290581
Si       7.60344898       1.79454093       4.21127131
Si       5.41191801       4.34395627       2.45794584
Si       8.80583106       3.28320072       2.81419731
Si       5.67435402       5.06172332       6.33435410
Si       3.11733031       2.01416672      -0.02468888
Si       3.31454934       5.46215908       1.65168930
Si       8.62172994       2.08604209       6.31334754
Si       5.30665873       2.73861845       0.68358924
Si       6.47198901       6.59981087       4.76116646
Si       3.41253027       0.87882965       6.55423610
Si       7.65971611       5.39227212       3.05415821
Si       5.64350777       3.08557306       4.50668303
Si       3.64512456       7.70186912       0.95706430
14
Lattice="6.856777379490103 0.08727572614456457 1.0143910181055273 2.964274797560275 7.8486905664951685 -0.8320792233333424 1.8699025296158132 0.6291473661720391 6.857577503432866" Properties=species:S:1:pos:R:3 unique_starting_index=86 config_type=initial n_minim_iter=8 stress="-0.0003757864946917256 -6.027407866815493e-05 0.00013702007055259508 -6.027407866815493e-05 0.00020879249523032017 -9.435716466856302e-07 0.00013702007055259508 -9.435716466856302e-07 -8.237822114257401e-05" pbc="T T T"
Si       7.53737593       4.30449982       5.20904744
Si       7.60829719       1.79586305       4.22651985
Si       5.41497455       4.34455475       2.47027720
Si       8.80873323       3.28257256       2.83146597
Si       5.68371205       5.06254329       6.34622555
Si       3.11659253       2.01442125      -0.01862344
Si       3.31626466       5.46238226       1.66068425
Si       8.62963227       2.08727732       6.33118575
Si       5.30576580       2.73744436       0.69253059
Si       6.47766221       6.60050857       4.77698470
Si       3.42330732       0.88038668       6.56259869
Si       7.66228147       5.39193324       3.06998774
Si       5.64963042       3.08492169       4.51912926
Si       3.64500215       7.70049032       0.96585201
14
Lattice="6.87115886120984 0.08665864118262137 1.019351227776765 2.9686047312122494 7.834301703516691 -0.8262178552069307 1.8780804981884989 0.6314393141199125 6.861392130456848" Properties=species:S:1:pos:R:3 unique_starting_index=86 config_type=initial n_minim_iter=9 stress="0.00021691224686358647 1.353367644252209e-05 0.000402222376556847 1.353367644252209e-05 -0.0003730669612306626 0.00034199670037844866 0.000402222376556847 0.00034199670037844866 0.0001258230165530495" pbc="T T T"
Si       7.55664943       4.29977285       5.21737685
Si       7.62544703       1.79403279       4.23505385
Si       5.42822754       4.33822022       2.47859548
Si       8.82828004       3.27718110       2.84147774
Si       5.69980953       5.05724485       6.35263099
Si       3.12216077       2.01306271      -0.01510648
Si       3.32431467       5.45428964       1.66937261
Si       8.64843082       2.08382894       6.34093926
Si       5.31449351       2.73358340       0.69342846
Si       6.49437641       6.59112607       4.78797761
Si       3.43412189       0.88156699       6.56674993
Si       7.67799983       5.38240090       3.07702324
Si       5.66507059       3.07773215       4.52666361
Si       3.64990132       7.68584928       0.97179736
14
Lattice="6.892118042933565 0.0689857622573324 1.0432310075294684 2.953452881080663 7.818649351549575 -0.8174709097543178 1.9044333039811405 0.6254598156356073 6.872575443414078" Properties=species:S:1:pos:R:3 unique_starting_index=86 config_type=initial n_minim_iter=10 stress="0.00020779293603293217 2.4675431000427646e-05 0.0008729321136664703 2.4675431000427646e-05 -0.0002993107339594614 0.0005000529413585124 0.0008729321136664703 0.0005000529413585124 0.000108422329037718" pbc="T T T"
Si       7.58454025       4.27941485       5.24048212
Si       7.65395587       1.76561936       4.27098980
Si       5.44597187       4.31742519       2.50342059
Si       8.85203369       3.25661492       2.88486544
Si       5.73141098       5.04686369       6.37562246
Si       3.11942048       2.01727391      -0.00237593
Si       3.33161105       5.44082034       1.69770488
Si       8.67235157       2.04273124       6.38011572
Si       5.31341895       2.73393462       0.68801648
Si       6.52772032       6.56600160       4.81534414
Si       3.45670349       0.87147199       6.57881081
Si       7.69017164       5.35284795       3.08946424
Si       5.70253909       3.04419395       4.55167534
Si       3.62821393       7.66379468       0.97871420
14
Lattice="6.889367629109649 0.06018899297733254 1.0316185125956983 2.9454884946007684 7.814616939568422 -0.8299891927310383 1.8913249747324246 0.6174867089921764 6.873458833960469" Properties=species:S:1:pos:R:3 unique_starting_index=86 config_type=initial n_minim_iter=11 stress="-0.00016045245397107915 5.005624460626927e-05 -0.000563922463550842 5.005624460626927e-05 -0.00011960833004272394 -0.00014705145873017666 -0.000563922463550842 -0.00014705145873017666 0.00024081832910426818" pbc="T T T"
Si       7.56945571       4.26562444       5.22347098
Si       7.64491183       1.74739890       4.26121863
Si       5.43727194       4.30396144       2.49253270
Si       8.84182946       3.24841002       2.87520816
Si       5.71592738       5.03854485       6.36981437
Si       3.11360423       2.01830061      -0.01006891
Si       3.32569216       5.43263366       1.69435897
Si       8.65104503       2.01916556       6.37082656
Si       5.30511662       2.73652248       0.66807274
Si       6.52026285       6.55220684       4.79997527
Si       3.43985623       0.86483116       6.57438939
Si       7.67705726       5.33924506       3.06663268
Si       5.69710544       3.02917303       4.54227271
Si       3.60948019       7.65741593       0.96528726
14
Lattice="6.895945151914685 0.057829829343512336 1.0359818964221543 2.944921524049404 7.819768666343362 -0.8292824272151114 1.8982396507683792 0.6149967873501474 6.866736834339807" Properties=species:S:1:pos:R:3 unique_starting_index=86 config_type=initial n_minim_iter=12 stress="0.00019527113448795648 -2.3475204718317383e-06 -0.0002614626541669039 -2.3475204718317383e-06 0.00029323534200507355 -0.0003023598812881908 -0.0002614626541669039 -0.0003023598812881908 -0.000347420738412716" pbc="T T T"
Si       7.57953222       4.26432618       5.22136676
Si       7.65473245       1.74438973       4.26182257
Si       5.44244313       4.30329087       2.49274122
Si       8.85140182       3.24810784       2.87926387
Si       5.72393777       5.03815718       6.36537629
Si       3.11545997       2.01956546      -0.00902236
Si       3.32900879       5.43421607       1.69414320
Si       8.66123080       2.01510865       6.37051555
Si       5.30898375       2.73770472       0.66965510
Si       6.52839229       6.55356795       4.79730313
Si       3.44738877       0.86370110       6.56928192
Si       7.68448439       5.33999773       3.06708492
Si       5.70475435       3.02738551       4.54024878
Si       3.60960021       7.66195433       0.96435862
14
Lattice="6.898830788974796 0.047886659591921864 1.0596703690097475 2.929940540482859 7.813850734356944 -0.8158430217402477 1.920029093633619 0.6157050058060787 6.878577721389703" Properties=species:S:1:pos:R:3 unique_starting_index=86 config_type=initial n_minim_iter=13 stress="-0.0002732871003168142 -0.00018626870522340912 0.0007570253137166342 -0.00018626870522340912 0.0005937216852407546 0.00011496412071048613 0.0007570253137166342 0.00011496412071048613 -0.0002232402536406261" pbc="T T T"
Si       7.59577184       4.25253764       5.24854521
Si       7.66854661       1.73249597       4.29139100
Si       5.44391159       4.28745798       2.51688132
Si       8.86159787       3.24209420       2.92225126
Si       5.73484945       5.03030334       6.39044263
Si       3.11166056       2.02008779      -0.00297418
Si       3.33205186       5.42436765       1.71702679
Si       8.66800819       1.99919385       6.41125854
Si       5.30327646       2.73613525       0.68118572
Si       6.53892952       6.54698584       4.82681235
Si       3.46527966       0.87260145       6.58570145
Si       7.68692112       5.33006500       3.09436561
Si       5.71679459       3.01427115       4.56240599
Si       3.59079594       7.65695354       0.98060040
14
Lattice="6.925613181749783 0.038842360084100365 1.0579145312942924 2.932384275957827 7.785427667179347 -0.8190071378074443 1.9243262716570126 0.6100119118114539 6.881653028068671" Properties=species:S:1:pos:R:3 unique_starting_index=86 config_type=initial n_minim_iter=14 stress="8.416564182128052e-05 4.849775825836397e-05 -0.00018792807504581404 4.849775825836397e-05 -2.3937092862483363e-05 -5.783982150337016e-05 -0.00018792807504581404 -5.783982150337016e-05 -0.00016669568749286815" pbc="T T T"
Si       7.62407976       4.22659123       5.24161702
Si       7.69813374       1.71257181       4.29360532
Si       5.46159636       4.25702726       2.51817434
Si       8.89926516       3.22853342       2.93379522
Si       5.74903167       5.00611436       6.38912126
Si       3.11979139       2.01975119      -0.00907445
Si       3.34672586       5.39781459       1.72729092
Si       8.68316966       1.96892688       6.41870768
Si       5.31309990       2.73239247       0.66506371
Si       6.56483226       6.51871623       4.82791200
Si       3.47006355       0.87520880       6.58630791
Si       7.70971812       5.30294481       3.08457276
Si       5.74108020       2.98579412       4.56136356
Si       3.58048300       7.62692115       0.97570843
14
Lattice="6.943823675874458 0.028690885971538484 1.0796110960599372 2.9243151242369745 7.757065664443812 -0.8045502189232251 1.9462555132680024 0.6129131970640873 6.907045547773891" Properties=species:S:1:pos:R:3 unique_starting_index=86 config_type=initial n_minim_iter=15 stress="-0.00025523210465800767 -2.6914236534292458e-05 0.00013519741759207497 -2.6914236534292458e-05 -0.0002850616893943121 0.000298597812070723 0.00013519741759207497 0.000298597812070723 0.0009563615593977825" pbc="T T T"
Si       7.64354774       4.20408677       5.27544091
Si       7.73033606       1.69571323       4.33465041
Si       5.47854703       4.22896183       2.54577896
Si       8.93044524       3.21972594       2.98567757
Si       5.77244429       4.99209417       6.43120609
Si       3.12129630       2.01849752      -0.00087550
Si       3.35983046       5.37416913       1.75394296
Si       8.69875248       1.94318515       6.46706764
Si       5.31702905       2.72861206       0.67105689
Si       6.59476591       6.49615353       4.86801965
Si       3.48446026       0.88123531       6.61480952
Si       7.72631887       5.28029216       3.10986754
Si       5.77645468       2.96587218       4.59238636
Si       3.56165364       7.59614606       0.99240413
14
Lattice="6.964974606522856 0.03171417862732519 1.0762601544669586 2.9380033034682094 7.751111150633167 -0.8077721538053778 1.950431555195203 0.6101153058684287 6.896557994841351" Properties=species:S:1:pos:R:3 unique_starting_index=86 config_type=initial n_minim_iter=16 stress="5.952004093695867e-06 -0.0001283704647195063 6.721257387516623e-05 -0.0001283704647195063 -0.00027573830383333597 -0.00014394058752860002 6.721257387516623e-05 -0.00014394058752860002 5.038849617209543e-05" pbc="T T T"
Si       7.66071966       4.19513583       5.26319643
Si       7.75987528       1.70266021       4.32622132
Si       5.50041707       4.22334077       2.53599191
Si       8.97399607       3.22499492       2.98406648
Si       5.78596419       4.97793566       6.41211928
Si       3.13725905       2.01802950      -0.00523402
Si       3.37795801       5.36653300       1.74078087
Si       8.71873264       1.94196456       6.45341579
Si       5.33367290       2.72092655       0.67311128
Si       6.60979255       6.49561201       4.86113011
Si       3.48783990       0.88524876       6.60823765
Si       7.75199817       5.28446180       3.10446506
Si       5.79824102       2.96535446       4.58136589
Si       3.57101426       7.58773467       0.98488400
14
Lattice="7.009236485198512 0.020997488721047657 1.0918426379984967 2.942161511604939 7.732686045744805 -0.7994220907675229 1.9772413764953765 0.6064996864221438 6.894741126425094" Properties=species:S:1:pos:R:3 unique_starting_index=86 config_type=initial n_minim_iter=17 stress="0.00029454202413760095 1.7328494695868048e-05 -0.0002242785254071054 1.7328494695868048e-05 0.0006283726048606919 -1.2166418727439027e-05 -0.0002242785254071054 -1.2166418727439027e-05 -0.0003696110530159481" pbc="T T T"
Si       7.71144487       4.17128414       5.26846888
Si       7.82304509       1.68485555       4.34342111
Si       5.54347404       4.19699055       2.54838617
Si       9.05050449       3.22139083       3.02847947
Si       5.82914779       4.95732911       6.41413521
Si       3.15182902       2.02367847      -0.00109241
Si       3.41175566       5.34384917       1.75800933
Si       8.75954986       1.90477510       6.47724167
Si       5.34846554       2.71966793       0.66562358
Si       6.66151862       6.47734311       4.87910816
Si       3.50810504       0.89590684       6.60990112
Si       7.79298515       5.26754003       3.10899781
Si       5.85749742       2.93643381       4.58950935
Si       3.55631117       7.56806603       0.98881001
14
Lattice="7.049940983524698 0.02757475372369759 1.1162999337150235 2.9617149957367057 7.707980907123648 -0.7780677829820711 2.011717911763684 0.6155939461656674 6.903878507868202" Properties=species:S:1:pos:R:3 unique_starting_index=86 config_type=initial n_minim_iter=18 stress="-0.0008789193166079586 0.0005042471339030322 0.0002155939824637695 0.0005042471339030322 0.00017631052936290672 0.00017083439917797697 0.0002155939824637695 0.00017083439917797697 -0.00047537209956661667" pbc="T T T"
Si       7.76142601       4.16308546       5.29949742
Si       7.90137301       1.68691138       4.36458052
Si       5.60843181       4.19049134       2.57130911
Si       9.13865964       3.24360685       3.10060170
Si       5.88845632       4.94560252       6.43943072
Si       3.16695853       2.02229181       0.01670615
Si       3.46547988       5.32195040       1.76961863
Si       8.80324800       1.89323137       6.51801295
Si       5.36836281       2.71040335       0.67012258
Si       6.72005354       6.46926945       4.91948272
Si       3.52942643       0.92240360       6.62334310
Si       7.83424869       5.26743100       3.13534046
Si       5.93035975       2.93194025       4.61057603
Si       3.55170521       7.55528708       1.01927139
14
Lattice="7.132888276981511 0.0027241975144695267 1.1356637171150834 2.9663811231181514 7.636481553158201 -0.7660534991017084 2.0488162648498665 0.6092681313148284 6.920661098333617" Properties=species:S:1:pos:R:3 unique_starting_index=86 config_type=initial n_minim_iter=19 stress="0.0011730035122605273 -0.0007674713574530421 -0.0001364011784812803 -0.0007674713574530421 -2.9997493365529783e-06 2.6708121853327015e-05 -0.0001364011784812803 2.6708121853327015e-05 0.0010031437519614774" pbc="T T T"
Si       7.84218884       4.09676779       5.32409377
Si       8.01951268       1.64540499       4.39125274
Si       5.68262006       4.12834280       2.58566643
Si       9.26860313       3.21789759       3.17468481
Si       5.95282401       4.88324760       6.46878719
Si       3.19078553       2.00231925       0.02572754
Si       3.52256324       5.25827056       1.78165107
Si       8.87675913       1.82435165       6.55706289
Si       5.40729466       2.67602340       0.66837662
Si       6.79261512       6.40226621       4.95478010
Si       3.55903839       0.92946509       6.64464638
Si       7.89998650       5.20754245       3.15128087
Si       6.02428431       2.88294880       4.62888976
Si       3.52687498       7.48883761       1.03601544
14
Lattice="7.108654368174678 0.012965181481194995 1.1208343941007188 2.9705643345193375 7.652525540303014 -0.7757672952262754 2.0294884518528127 0.6096020043478909 6.913224054344619" Properties=species:S:1:pos:R:3 unique_starting_index=86 config_type=initial n_minim_iter=20 stress="0.0010797978097698841 -0.000501799079649143 -0.00028248526725815556 -0.000501799079649143 -0.00034982550464832005 -0.00025225069365685464 -0.00028248526725815556 -0.00025225069365685464 0.0004235126198127371" pbc="T T T"
Si       7.81964625       4.11506654       5.31078910
Si       7.98332852       1.66288293       4.36984853
Si       5.66007525       4.14934182       2.56686299
Si       9.22746966       3.22743192       3.13956952
Si       5.92794304       4.89457105       6.45242636
Si       3.18456963       1.99986525       0.02157530
Si       3.51036371       5.27596047       1.76244194
Si       8.85512329       1.84771639       6.52788256
Si       5.40035836       2.67812001       0.67080282
Si       6.76009771       6.41770580       4.93281224
Si       3.54511925       0.92327595       6.63573920
Si       7.87726708       5.22273072       3.14011190
Si       5.98710387       2.90230367       4.61305092
Si       3.54162794       7.50623118       1.02664538
14
Lattice="7.134963268206634 0.025430455278576226 1.153103630353997 2.9906466881453375 7.638388639968118 -0.762864180929731 2.0681462712048924 0.6110005308509792 6.924996232620661" Properties=species:S:1:pos:R:3 unique_starting_index=86 config_type=initial n_minim_iter=21 stress="-0.0013640961269229862 0.0008949130469534419 0.0004247332981847814 0.0008949130469534419 0.00028644437368952844 0.00033049724388825 0.0004247332981847814 0.00033049724388825 -0.0002869334635166163" pbc="T T T"
Si       7.88906133       4.11283953       5.34940719
Si       8.04901466       1.68049808       4.40956204
Si       5.71471939       4.14497451       2.57712269
Si       9.29919794       3.27344812       3.23015908
Si       5.98812682       4.87882241       6.47689717
Si       3.18846440       2.00287191       0.04413891
Si       3.59052063       5.26583255       1.77028723
Si       8.88513532       1.82426398       6.56510910
Si       5.40548413       2.68015621       0.68204881
Si       6.81018541       6.41507433       4.97207401
Si       3.56669783       0.93969968       6.65782397
Si       7.89956964       5.22448265       3.16640182
Si       6.05165230       2.89447121       4.63341473
Si       3.53096428       7.49772943       1.03725441
