12
Lattice="5.242519504483949 2.732319864944311e-26 -3.0034262351216603e-21 -3.9676390989820473e-26 7.613263038314596 -2.726370631672496e-14 3.628031536160498e-21 2.267818001476587e-14 6.332776170521846" Properties=species:S:1:pos:R:3 unique_starting_index=60 config_type=initial n_minim_iter=1 energy=-1952.9387757412933 free_energy=-1952.9387757412933 pbc="T T T"
Si       2.91539069       2.86177199      -0.71481985
Si       2.91539069       4.75149105       7.04759602
Si       0.29413094       0.94485953       2.45156824
Si       0.29413094       6.66840351       3.88120793
Si       4.30187708       4.88668963       2.69928550
Si       4.30187708       2.72657341       3.63349067
Si       1.68061733       6.53320493       5.86567358
Si       1.68061733       1.08005811       0.46710259
Si       0.42823814       2.85253902       5.61663230
Si       0.42823814       4.76072402       0.71614387
Si       3.04949789       0.95409250       2.45024421
Si       3.04949789       6.65917054       3.88253196
12
Lattice="5.233318964170202 2.727360888048683e-26 -3.0007856083825185e-21 -3.968207489518574e-26 7.613897953579351 -2.7267189429799503e-14 3.618622862526961e-21 2.2638268853291522e-14 6.321899401305841" Properties=species:S:1:pos:R:3 unique_starting_index=60 config_type=initial n_minim_iter=2 stress="-0.0007493784981856838 7.624730450777134e-17 -3.0851510494473957e-17 7.624730450777134e-17 -0.0010156795545067385 -3.239408601919765e-17 -3.0851510494473957e-17 -3.239408601919765e-17 0.0001611327793833201" pbc="T T T"
Si       2.91027575       2.86177937      -0.71388527
Si       2.91027575       4.75211859       7.03578467
Si       0.29361627       0.94516961       2.44706443
Si       0.29361627       6.66872834       3.87483497
Si       4.29425062       4.88711572       2.69443241
Si       4.29425062       2.72678224       3.62746699
Si       1.67759114       6.53373121       5.85538212
Si       1.67759114       1.08016674       0.46651729
Si       0.42756180       2.85284666       5.60699908
Si       0.42756180       4.76105129       0.71490032
Si       3.04422128       0.95410231       2.44604938
Si       3.04422128       6.65979564       3.87585002
12
Lattice="5.237563220765038 2.7188433252687623e-26 -3.0068463315719555e-21 -3.998652779535298e-26 7.642416536909347 -2.7362647061061936e-14 3.605481799706726e-21 2.2589087991235492e-14 6.306615554245438" Properties=species:S:1:pos:R:3 unique_starting_index=60 config_type=initial n_minim_iter=3 stress="-9.378293527162752e-05 2.3749126968628583e-17 -6.069221336427305e-17 2.3749126968628583e-17 0.0017993188652079533 1.0577157473991064e-16 -6.069221336427305e-17 1.0577157473991064e-16 -8.852180345541577e-05" pbc="T T T"
Si       2.91257569       2.87124691      -0.71374767
Si       2.91257569       4.77116963       7.02036322
Si       0.29379408       0.94996136       2.43956011
Si       0.29379408       6.69245518       3.86705544
Si       4.29728933       4.90533301       2.68698985
Si       4.29728933       2.73708353       3.61962570
Si       1.67850772       6.55829180       5.84029763
Si       1.67850772       1.08412474       0.46631793
Si       0.42841282       2.86397876       5.59359446
Si       0.42841282       4.77843777       0.71302110
Si       3.04719443       0.95722950       2.44028668
Si       3.04719443       6.68518703       3.86632888
12
Lattice="5.244359321046064 2.7297319841778465e-26 -3.0124289003742118e-21 -3.9788415540650307e-26 7.624885842681717 -2.7292091346552246e-14 3.60078541451563e-21 2.2578961653786137e-14 6.301982514525049" Properties=species:S:1:pos:R:3 unique_starting_index=60 config_type=initial n_minim_iter=4 stress="0.000363769216681613 -7.48955770688379e-18 -1.3216866541559629e-16 -7.48955770688379e-18 0.00018756337720719765 1.4428412641202596e-16 -1.3216866541559629e-16 1.4428412641202596e-16 -0.0006123075637549406" pbc="T T T"
Si       2.91603864       2.86358617      -0.71456622
Si       2.91603864       4.76129967       7.01654873
Si       0.29385898       0.94885675       2.43642504
Si       0.29385898       6.67602910       3.86555748
Si       4.30239683       4.89376583       2.68445069
Si       4.30239683       2.73112001       3.61753182
Si       1.68021717       6.54356294       5.83544195
Si       1.68021717       1.08132291       0.46654057
Si       0.42975357       2.85796693       5.58983484
Si       0.42975357       4.76691891       0.71214767
Si       3.05193323       0.95447599       2.43884359
Si       3.05193323       6.67040986       3.86313893
12
Lattice="5.241380866388973 2.7331255610433603e-26 -3.008699729383346e-21 -3.965219832408335e-26 7.612533835411038 -2.723053349783548e-14 3.609773813096657e-21 2.2634192755714384e-14 6.313399093135223" Properties=species:S:1:pos:R:3 unique_starting_index=60 config_type=initial n_minim_iter=5 stress="-0.00017703791661131873 6.522795256920343e-17 -8.197567012075565e-17 6.522795256920343e-17 -0.0005133462593036956 8.616259950864372e-17 -8.197567012075565e-17 8.616259950864372e-17 4.530306983928528e-05" pbc="T T T"
Si       2.91348475       2.85715913      -0.71819974
Si       2.91348475       4.75537470       7.03159883
Si       0.29279432       0.94910779       2.43849981
Si       0.29279432       6.66342605       3.87489929
Si       4.29912465       4.88551352       2.68833650
Si       4.29912465       2.72702031       3.62506259
Si       1.67843422       6.53328723       5.84503605
Si       1.67843422       1.07924660       0.46836304
Si       0.43123596       2.85405544       5.60029277
Si       0.43123596       4.75847840       0.71310633
Si       3.05192639       0.95221148       2.44359322
Si       3.05192639       6.66032236       3.86980587
12
Lattice="5.243937206201981 2.7341079110494965e-26 -3.011252079312372e-21 -3.9661851583974033e-26 7.613412267585191 -2.7216212832345616e-14 3.606597787207665e-21 2.2637115983775094e-14 6.310152824049331" Properties=species:S:1:pos:R:3 unique_starting_index=60 config_type=initial n_minim_iter=6 stress="-2.7696649935536912e-05 5.2442149425716826e-17 -2.6441419878512685e-17 5.2442149425716826e-17 -0.00024639365800868034 2.401762305631569e-17 -2.6441419878512685e-17 2.401762305631569e-17 1.6976206300079753e-05" pbc="T T T"
Si       2.91420657       2.85660459      -0.71934869
Si       2.91420657       4.75680768       7.02950151
Si       0.29223797       0.95010155       2.43572772
Si       0.29223797       6.66331072       3.87442510
Si       4.30063651       4.88589171       2.68603091
Si       4.30063651       2.72752056       3.62412191
Si       1.67866791       6.53422669       5.84110732
Si       1.67866791       1.07918557       0.46904550
Si       0.43273035       2.85479995       5.59734720
Si       0.43273035       4.75861232       0.71280563
Si       3.05469895       0.95190619       2.44227079
Si       3.05469895       6.66150608       3.86788204
12
Lattice="5.2485996636483625 2.7346922370343487e-26 -3.0164159254587004e-21 -3.971277998133085e-26 7.61804254462902 -2.720473398412853e-14 3.599833807733715e-21 2.263710553945757e-14 6.303612214574372" Properties=species:S:1:pos:R:3 unique_starting_index=60 config_type=initial n_minim_iter=7 stress="7.277772723430842e-05 1.1893171009662923e-17 -1.021931731200666e-16 1.1893171009662923e-17 0.0005976359262958813 2.1077341956013737e-16 -1.021931731200666e-16 2.1077341956013737e-16 0.00013459575755447848" pbc="T T T"
Si       2.91415492       2.85769684      -0.72158970
Si       2.91415492       4.76034570       7.02520191
Si       0.28985509       0.95132443       2.43021641
Si       0.28985509       6.66671811       3.87339581
Si       4.30304405       4.88856250       2.68074823
Si       4.30304405       2.72948005       3.62286399
Si       1.67874422       6.53850132       5.83255434
Si       1.67874422       1.07954123       0.47105788
Si       0.43717402       2.85716857       5.59030031
Si       0.43717402       4.76087398       0.71331191
Si       3.06147386       0.95185270       2.43849420
Si       3.06147386       6.66618984       3.86511802
12
Lattice="5.25652603359082 2.7408185452936935e-26 -3.0252568876022408e-21 -3.9657486561681456e-26 7.613000220927845 -2.7210075192796912e-14 3.588604103337305e-21 2.258005503916941e-14 6.2931038065657585" Properties=species:S:1:pos:R:3 unique_starting_index=60 config_type=initial n_minim_iter=8 stress="3.7356879785199146e-05 1.013954596123843e-17 -1.1285755504682774e-16 1.013954596123843e-17 0.00016262792749859088 3.720772517950102e-16 -1.1285755504682774e-16 3.720772517950102e-16 1.9224862218034795e-06" pbc="T T T"
Si       2.91305173       2.85979858      -0.72133453
Si       2.91305173       4.75320164       7.01443834
Si       0.28478871       0.94670153       2.42521737
Si       0.28478871       6.66629869       3.86788643
Si       4.30826943       4.88525156       2.67322087
Si       4.30826943       2.72774866       3.61988293
Si       1.68000641       6.53424877       5.81977278
Si       1.68000641       1.07875145       0.47333103
Si       0.44461139       2.85545710       5.57653427
Si       0.44461139       4.75754312       0.71656954
Si       3.07287440       0.95104301       2.42998236
Si       3.07287440       6.66195721       3.86312144
12
Lattice="5.259448563156481 2.743298442492434e-26 -3.029640120081941e-21 -3.963142234083108e-26 7.6106679891207705 -2.718262269790957e-14 3.583233996379853e-21 2.2582892843747297e-14 6.289455921214694" Properties=species:S:1:pos:R:3 unique_starting_index=60 config_type=initial n_minim_iter=9 stress="-1.6267219998345535e-05 1.9403802247279085e-17 -7.84972000003563e-17 1.9403802247279085e-17 -4.5038781807907955e-05 3.949114752826914e-16 -7.84972000003563e-17 3.949114752826914e-16 -2.578802497816129e-06" pbc="T T T"
Si       2.91233040       2.86034462      -0.72172782
Si       2.91233040       4.75032337       7.01118374
Si       0.28260612       0.94498938       2.42300014
Si       0.28260612       6.66567861       3.86645578
Si       4.31019886       4.88362915       2.67053133
Si       4.31019886       2.72703884       3.61892459
Si       1.68047458       6.53237284       5.81525929
Si       1.68047458       1.07829515       0.47419663
Si       0.44766539       2.85531986       5.57147685
Si       0.44766539       4.75534813       0.71797907
Si       3.07738968       0.95001414       2.42674889
Si       3.07738968       6.66065385       3.86270703
12
Lattice="5.266241039788867 2.7479521470841613e-26 -3.0400825480519717e-21 -3.9602509552912794e-26 7.608229279442773 -2.7178990929175e-14 3.569650776754725e-21 2.25434807260822e-14 6.279612785261591" Properties=species:S:1:pos:R:3 unique_starting_index=60 config_type=initial n_minim_iter=10 stress="-7.077469926730982e-05 -1.765033818581698e-17 -1.4120270548653584e-16 -1.765033818581698e-17 -0.00036229166922491186 3.2344244725509615e-16 -1.4120270548653584e-16 3.2344244725509615e-16 -1.835591208969642e-05" pbc="T T T"
Si       2.91051685       2.86274746      -0.72316409
Si       2.91051685       4.74548182       7.00277688
Si       0.27739633       0.94136718       2.41664230
Si       0.27739633       6.66686210       3.86297048
Si       4.31513709       4.88166782       2.66443312
Si       4.31513709       2.72656146       3.61517966
Si       1.68201657       6.53067610       5.80423951
Si       1.68201657       1.07755318       0.47537327
Si       0.45444663       2.85801020       5.55813238
Si       0.45444663       4.75021908       0.72148040
Si       3.08756715       0.94610444       2.41832599
Si       3.08756715       6.66212484       3.86128680
12
Lattice="5.267119510685688 2.745160906238225e-26 -3.047608781724396e-21 -3.9693019108444696e-26 7.616538834021142 -2.7156612635687157e-14 3.5578886672282084e-21 2.2566565376167798e-14 6.273922792908847" Properties=species:S:1:pos:R:3 unique_starting_index=60 config_type=initial n_minim_iter=11 stress="0.00015615719748484716 1.6320819081359717e-17 -4.058149609419173e-17 1.6320819081359717e-17 0.0001532537069921466 2.190077479431108e-16 -4.058149609419173e-17 2.190077479431108e-16 3.6082366648220858e-06" pbc="T T T"
Si       2.90931487       2.86686943      -0.72537464
Si       2.90931487       4.74966941       6.99929743
Si       0.27575511       0.94139999       2.41158676
Si       0.27575511       6.67513884       3.86233603
Si       4.31722816       4.88699838       2.66433128
Si       4.31722816       2.72954045       3.60959151
Si       1.68366841       6.53780987       5.80129268
Si       1.68366841       1.07872896       0.47263012
Si       0.45483867       2.86763992       5.55014061
Si       0.45483867       4.74889892       0.72378218
Si       3.08839842       0.94062950       2.41317922
Si       3.08839842       6.67590934       3.86074358
12
Lattice="5.266096858838206 2.7484645291158476e-26 -3.0570114569128795e-21 -3.9587893959562445e-26 7.60706230438781 -2.7056784891382252e-14 3.5437839940568974e-21 2.2608612852857465e-14 6.270381674958646" Properties=species:S:1:pos:R:3 unique_starting_index=60 config_type=initial n_minim_iter=12 stress="-0.0014363244997242744 5.613247062718112e-17 -7.602192872342642e-17 5.613247062718112e-17 -0.00025371233201652545 1.3723726086409244e-16 -7.602192872342642e-17 1.3723726086409244e-16 0.0002911159320172013" pbc="T T T"
Si       2.90362155       2.86708073      -0.73202801
Si       2.90362155       4.73998157       7.00240968
Si       0.27057312       0.93645042       2.40316283
Si       0.27057312       6.67061188       3.86721884
Si       4.31731926       4.88418136       2.66805010
Si       4.31731926       2.72288095       3.60233158
Si       1.68427083       6.52641210       5.80324093
Si       1.68427083       1.08065020       0.46714074
Si       0.45894949       2.87012357       5.53527641
Si       0.45894949       4.73693874       0.73510526
Si       3.09199792       0.93340759       2.40008557
Si       3.09199792       6.67365472       3.87029610
12
Lattice="5.295017235326679 2.7693145670932645e-26 -3.094977148593022e-21 -3.944161090689022e-26 7.59512732726478 -2.697822754144394e-14 3.494956449805153e-21 2.2498331128055383e-14 6.231045851009208" Properties=species:S:1:pos:R:3 unique_starting_index=60 config_type=initial n_minim_iter=13 stress="-3.560090050134129e-05 6.6456597915128705e-19 -2.303828727724462e-17 6.6456597915128705e-19 -0.0003934908125521058 -2.6582639166051482e-18 -2.303828727724462e-17 -2.6582639166051482e-18 -0.00046740587316532607" pbc="T T T"
Si       2.91266041       2.86691570      -0.74051245
Si       2.91266041       4.72821163       6.97155830
Si       0.26515179       0.93064796       2.37501047
Si       0.26515179       6.66447936       3.85603538
Si       4.34067546       4.88145491       2.65832311
Si       4.34067546       2.71367242       3.57272274
Si       1.69316685       6.51123608       5.77384604
Si       1.69316685       1.08389125       0.45719981
Si       0.46873088       2.87319176       5.48309417
Si       0.46873088       4.72193557       0.74795168
Si       3.11623950       0.92437191       2.36757124
Si       3.11623950       6.67075542       3.86347461
12
Lattice="5.293284709905983 2.767653518640841e-26 -3.1109903647959576e-21 -3.948120959566019e-26 7.600603578593673 -2.7065174634190487e-14 3.478242036771973e-21 2.2465694852370068e-14 6.237586943348001" Properties=species:S:1:pos:R:3 unique_starting_index=60 config_type=initial n_minim_iter=14 stress="0.00020113297931978976 4.0037676025056497e-17 2.4774694556941036e-17 4.0037676025056497e-17 0.0002818117846134729 -9.666554929806458e-17 2.4774694556941036e-17 -9.666554929806458e-17 0.00036789778018868363" pbc="T T T"
Si       2.91163420       2.86904252      -0.74130910
Si       2.91163420       4.73156105       6.97889605
Si       0.26499185       0.93125927       2.37748437
Si       0.26499185       6.66934431       3.86010257
Si       4.33783714       4.88375662       2.65948834
Si       4.33783714       2.71684695       3.57809860
Si       1.69119478       6.51714874       5.77828181
Si       1.69119478       1.08345483       0.45930513
Si       0.47006876       2.87451679       5.49080956
Si       0.47006876       4.72608679       0.74677738
Si       3.11671111       0.92578500       2.37201609
Si       3.11671111       6.67481858       3.86557085
12
Lattice="5.300081052731901 2.772363153170298e-26 -3.138465881098361e-21 -3.946456968067558e-26 7.6006806633967114 -2.7098680944130978e-14 3.43946069760331e-21 2.23761157450581e-14 6.220212552462317" Properties=species:S:1:pos:R:3 unique_starting_index=60 config_type=initial n_minim_iter=15 stress="0.00014188282836106046 9.969021325030658e-18 -6.025719556462976e-17 9.969021325030658e-18 8.026500945170003e-05 -3.1635027671430623e-16 -6.025719556462976e-17 -3.1635027671430623e-16 3.293221990130281e-06" pbc="T T T"
Si       2.91346814       2.87516276      -0.74734388
Si       2.91346814       4.72551791       6.96755643
Si       0.26342761       0.92517757       2.36276240
Si       0.26342761       6.67550309       3.85745015
Si       4.34072105       4.88510538       2.65858268
Si       4.34072105       2.71557528       3.56162987
Si       1.69068052       6.51591562       5.76868895
Si       1.69068052       1.08476505       0.45152360
Si       0.47526246       2.87912418       5.46728140
Si       0.47526246       4.72155648       0.75293115
Si       3.12530299       0.92121615       2.35717512
Si       3.12530299       6.67946451       3.86303743
