14
Lattice="6.694935379779 1.7938073822306442 -1.3831814884844682 -1.1118498948340467 6.841322708138829 1.3831807938622425 -4.408091955495721 -3.2723768086992298 5.6779743593044705" Properties=species:S:1:pos:R:3 unique_starting_index=10 config_type=initial n_minim_iter=1 energy=-2277.873835300018 free_energy=-2277.873835300018 pbc="T T T"
Si       2.07902115       4.70206569       3.40735009
Si      -0.97350004       0.55323745       2.27062359
Si       0.70746460       2.64966046       3.37646684
Si       3.30088205       7.09532429       2.30150647
Si      -1.15637728      -2.23737963       4.41802019
Si      -0.39069951       3.39001804       1.25995382
Si       0.21517927      -0.18497440       4.44890343
Si       0.91800388       5.48306128       1.22907024
Si       4.02951678       6.23228889      -0.00000050
Si      -3.00657157      -1.10470251       5.67797419
Si       0.18936915       6.34609669       3.53057721
Si      -2.76571994       1.77558119       3.53057758
Si       2.59195275       1.50109903       2.14739626
Si       2.73878308       4.23596384      -0.00000034
14
Lattice="6.7050013612854 1.7988536637104022 -1.386293417045083 -1.1113792928788222 6.852572929577486 1.3862927211119431 -4.415289551236244 -3.279277658193036 5.690979394561081" Properties=species:S:1:pos:R:3 unique_starting_index=10 config_type=initial n_minim_iter=2 stress="0.0007517810555581958 -0.00036700443803643746 0.0002489543298289882 -0.00036700443803643746 0.000421438759765662 -0.00016096268880508787 0.0002489543298289882 -0.00016096268880508787 -0.0004669155386100205" pbc="T T T"
Si       2.08355217       4.71067694       3.41531730
Si      -0.97470455       0.55400254       2.27566141
Si       0.70927363       2.65451736       3.38427505
Si       3.30790764       7.10836289       2.30670329
Si      -1.15876926      -2.24159664       4.42800456
Si      -0.39022435       3.39550176       1.26297448
Si       0.21550928      -0.18543706       4.45904681
Si       0.92078553       5.49256799       1.23193190
Si       4.03722134       6.24420522      -0.00000050
Si      -3.01109356      -1.10746512       5.69097922
Si       0.19147182       6.35672567       3.53863569
Si      -2.76912489       1.77769176       3.53863606
Si       2.59621627       1.50454775       2.15234281
Si       2.74385619       4.24381021      -0.00000034
14
Lattice="6.695234982490979 1.806322590568127 -1.394855557824537 -1.1005601871790398 6.846732212390198 1.3948548617604215 -4.416029076398465 -3.279953940898533 5.708216083426382" Properties=species:S:1:pos:R:3 unique_starting_index=10 config_type=initial n_minim_iter=3 stress="3.740472790938023e-05 0.000211552942124611 8.427166528143902e-05 0.000211552942124611 0.00022782441386413668 -5.448628159507056e-05 8.427166528143902e-05 -5.448628159507056e-05 5.0061051095887274e-05" pbc="T T T"
Si       2.08379500       4.71212576       3.42609362
Si      -0.97422256       0.55414230       2.28212178
Si       0.70882884       2.65671167       3.39464277
Si       3.31040438       7.10980977       2.31357226
Si      -1.16421502      -2.23910426       4.43880221
Si      -0.38540337       3.39251055       1.26941352
Si       0.21075113      -0.18369017       4.47025305
Si       0.92464449       5.48989788       1.23796234
Si       4.03836157       6.24596875      -0.00000050
Si      -3.01115168      -1.10708750       5.70821591
Si       0.19668730       6.35373890       3.55153511
Si      -2.76450332       1.77378641       3.55153547
Si       2.59180620       1.50924773       2.15668008
Si       2.74380285       4.24372770      -0.00000034
14
Lattice="6.68854720221102 1.8026898940839862 -1.404637965526645 -1.1011281627566738 6.839142727895165 1.4046372703652579 -4.416936135026809 -3.2714107636924843 5.7251541884816834" Properties=species:S:1:pos:R:3 unique_starting_index=10 config_type=initial n_minim_iter=4 stress="-2.928688462407117e-05 -0.0008573938666169281 -0.00060909615853869 -0.0008573938666169281 -0.0008010306344148229 0.0003938142914819635 -0.00060909615853869 0.0003938142914819635 0.001116059966647832" pbc="T T T"
Si       2.07885325       4.70851818       3.43772569
Si      -0.97639127       0.55669850       2.28742782
Si       0.70418560       2.65852876       3.40537539
Si       3.30580418       7.10364232       2.31977775
Si      -1.16941957      -2.23291490       4.44768609
Si      -0.38578612       3.38762564       1.27746774
Si       0.20524808      -0.18292548       4.48003639
Si       0.91943747       5.48251445       1.24511711
Si       4.03371349       6.23877977      -0.00000050
Si      -3.01302230      -1.10003462       5.72515401
Si       0.19152816       6.34737700       3.56489536
Si      -2.76609122       1.77294800       3.56489573
Si       2.58716498       1.51039790       2.16025793
Si       2.73920483       4.23661615      -0.00000034
14
Lattice="6.6785592316584745 1.8231270321889326 -1.4072054270069114 -1.0783923552594694 6.838422148077709 1.4072047302594966 -4.417268551636109 -3.285175204726877 5.732753943835182" Properties=species:S:1:pos:R:3 unique_starting_index=10 config_type=initial n_minim_iter=5 stress="-0.0011453729703728083 0.0014420795327256138 -0.0006707762269638989 0.0014420795327256138 0.00015264905409684287 0.0004336935746233197 -0.0006707762269638989 0.0004336935746233197 0.0002497897237822458" pbc="T T T"
Si       2.09191864       4.71689025       3.44679603
Si      -0.97445126       0.55828438       2.28595722
Si       0.71043626       2.66806492       3.41249819
Si       3.32435036       7.11920811       2.32025470
Si      -1.17841670      -2.23692764       4.44873165
Si      -0.37333747       3.38372640       1.28402194
Si       0.20306569      -0.18810231       4.48302949
Si       0.92802778       5.48435185       1.24972377
Si       4.04426072       6.25509274      -0.00000050
Si      -3.00825558      -1.10591244       5.73275377
Si       0.20811742       6.34846722       3.56997897
Si      -2.75680170       1.76274801       3.56997934
Si       2.58750808       1.52224597       2.16277408
Si       2.74326242       4.24289184      -0.00000034
14
Lattice="6.673652371989926 1.816472684870294 -1.3841750395696164 -1.0824466851773535 6.831216589784664 1.3841743439371126 -4.392273421319697 -3.291509025998239 5.719601481156988" Properties=species:S:1:pos:R:3 unique_starting_index=10 config_type=initial n_minim_iter=6 stress="-0.0013779493331793084 0.0001024247129624672 0.0013263324934662236 0.0001024247129624672 -0.0012857566484539514 -0.0008575465290307313 0.0013263324934662236 -0.0008575465290307313 0.0014520709509951457" pbc="T T T"
Si       2.10586056       4.70241087       3.44643304
Si      -0.96838175       0.55872184       2.27316775
Si       0.72146072       2.66380623       3.40975563
Si       3.33197630       7.10731985       2.30984480
Si      -1.16404024      -2.24567110       4.44088114
Si      -0.37117688       3.37305427       1.27871999
Si       0.22035960      -0.20706646       4.47755855
Si       0.91967075       5.47214554       1.24204224
Si       4.03831637       6.24589885      -0.00000050
Si      -2.98361783      -1.11279900       5.71960131
Si       0.21333069       6.33356654       3.55188755
Si      -2.74821423       1.75306608       3.55188791
Si       2.59650579       1.51413341       2.16771304
Si       2.73758796       4.23411539      -0.00000034
14
Lattice="6.694954311344939 1.808688918626107 -1.3695288571063087 -1.0982871370655696 6.847447415435317 1.3695281607943113 -4.396890891589456 -3.2945126864232206 5.682706242993849" Properties=species:S:1:pos:R:3 unique_starting_index=10 config_type=initial n_minim_iter=7 stress="0.0011467255484894092 -0.001266031960642577 -4.8679825252377425e-06 -0.001266031960642577 7.164809820254352e-06 3.1474421261800223e-06 -4.8679825252377425e-06 3.1474421261800223e-06 -0.0005096005466993639" pbc="T T T"
Si       2.11825555       4.70798150       3.43465061
Si      -0.97300629       0.56930743       2.24805494
Si       0.72405670       2.67757935       3.39404738
Si       3.34431468       7.12078308       2.28865781
Si      -1.16861435      -2.25330381       4.40464380
Si      -0.37541593       3.37119402       1.27806209
Si       0.22558450      -0.22290166       4.44524703
Si       0.90393027       5.47585471       1.23745852
Si       4.04233613       6.25211606      -0.00000050
Si      -2.98426264      -1.10965831       5.68270607
Si       0.20590882       6.34452173       3.52611683
Si      -2.76105047       1.75564708       3.52611720
Si       2.60724629       1.51244900       2.15658851
Si       2.73928581       4.23674138      -0.00000034
14
Lattice="6.549647628051372 2.1320741301235406 -1.206641680286241 -0.7437564988872968 6.847660342157842 1.2066409579435493 -4.24520165113714 -3.62202456288518 5.625519439568525" Properties=species:S:1:pos:R:3 unique_starting_index=10 config_type=initial n_minim_iter=8 stress="-0.004881422126669361 -0.00701356998112926 -0.010011067914769866 -0.00701356998112926 -0.01119436445894457 0.006472704708478825 -0.010011067914769866 0.006472704708478825 -0.01683680135765715" pbc="T T T"
Si       2.63558776       4.86518934       3.72286704
Si      -0.89027398       0.77807145       1.90265166
Si       0.98679551       3.01902472       3.54982146
Si       3.90876406       7.49659244       2.07569684
Si      -1.37414808      -2.49738826       4.11209074
Si      -0.15273232       3.07968007       1.51342836
Si       0.27464418      -0.65122364       4.28513632
Si       0.85412078       5.34089355       1.34038245
Si       4.16997244       6.44952591      -0.00000052
Si      -2.71014553      -1.24781600       5.62551925
Si       0.59291240       6.38796008       3.41607982
Si      -2.57806241       1.48354296       3.41608021
Si       2.65766349       1.58342807       2.20943869
Si       2.84897785       4.40639758      -0.00000035
14
Lattice="6.543280244057752 2.1495712096958184 -1.1984617321788558 -0.7251876464248831 6.849034775086265 1.1984610083181153 -4.237941979007007 -3.640098555109493 5.624742435785114" Properties=species:S:1:pos:R:3 unique_starting_index=10 config_type=initial n_minim_iter=9 stress="-0.005860663952265031 -0.007837937814272299 -0.010004292408548526 -0.007837937814272299 -0.012915623270127628 0.006468324126637582 -0.010004292408548526 0.006468324126637582 -0.01716718588889031" pbc="T T T"
Si       2.66201914       4.87440309       3.73830660
Si      -0.88545980       0.78788169       1.88643509
Si       1.00178210       3.03592454       3.55825241
Si       3.93748565       7.51799204       2.06648889
Si      -1.38372253      -2.51081082       4.09957564
Si      -0.14158186       3.06623793       1.52516645
Si       0.27651451      -0.67233227       4.27962984
Si       0.85356529       5.33473356       1.34511193
Si       4.17729906       6.46085771      -0.00000052
Si      -2.69636334      -1.25580189       5.62474224
Si       0.61375187       6.39186790       3.41160134
Si      -2.56862030       1.46982296       3.41160173
Si       2.66066673       1.58709458       2.21314016
Si       2.85557185       4.41659625      -0.00000035
14
Lattice="6.525698773236987 2.3237860147252163 -1.182282114972371 -0.5591050097107158 6.904500652811751 1.1822813726357901 -4.2307910800645345 -3.807569413087278 5.731881406478215" Properties=species:S:1:pos:R:3 unique_starting_index=10 config_type=initial n_minim_iter=10 stress="0.002154119589158129 0.002702983964402532 -0.006522892948731606 0.002702983964402532 0.0045870880750404 0.004217408724322608 -0.006522892948731606 0.004217408724322608 0.012146321238766942" pbc="T T T"
Si       2.78662430       4.98062547       3.83814087
Si      -0.83258281       0.77763284       1.89373977
Si       1.10900993       3.09694369       3.64277863
Si       4.10477454       7.70302583       2.08910161
Si      -1.39501621      -2.60887157       4.16853963
Si      -0.07071679       3.07790446       1.56334144
Si       0.28259816      -0.72518979       4.36390187
Si       0.95851962       5.38079813       1.36797886
Si       4.26116217       6.59056535      -0.00000053
Si      -2.64810856      -1.35969905       5.73188121
Si       0.80213199       6.49325862       3.45708099
Si      -2.48598212       1.40766693       3.45708140
Si       2.67318944       1.61790118       2.27479946
Si       2.94920973       4.56142213      -0.00000037
14
Lattice="6.571014063816046 2.3526211677644295 -1.048272889178279 -0.5514077219863576 6.957657887549931 1.0482721402461146 -4.164766261965894 -3.9083920577237294 5.583229903150663" Properties=species:S:1:pos:R:3 unique_starting_index=10 config_type=initial n_minim_iter=11 stress="0.0034777485157952495 0.0024769985113575776 0.005795158312050007 0.0024769985113575776 0.005707304363324058 -0.003746888259672506 0.005795158312050007 -0.003746888259672506 0.002556040123808499" pbc="T T T"
Si       2.86819358       4.98193439       3.76046665
Si      -0.79884075       0.75173072       1.82276248
Si       1.19509208       3.08862054       3.55284065
Si       4.18089355       7.75927835       2.03038806
Si      -1.31513118      -2.68550259       4.09024120
Si      -0.05434465       3.10047197       1.49298835
Si       0.35797032      -0.79218874       4.29786719
Si       0.98552738       5.40320339       1.28536202
Si       4.28195693       6.62272774      -0.00000053
Si      -2.56488779      -1.43392542       5.58322970
Si       0.88446401       6.53975400       3.31575062
Si      -2.45306388       1.37773605       3.31575103
Si       2.73265439       1.58777684       2.26747832
Si       2.98517427       4.61704702      -0.00000037
14
Lattice="6.581700595364571 2.399233608493337 -0.9761459876167605 -0.5132874667455312 6.986532908790836 0.9761452326122778 -4.133116449784728 -3.9823772698217597 5.48872619030968" Properties=species:S:1:pos:R:3 unique_starting_index=10 config_type=initial n_minim_iter=12 stress="-0.0024721244402208273 0.0005134900103650343 0.007387236492401332 0.0005134900103650343 -0.0020099312064533626 -0.004776253546953659 0.007387236492401332 -0.004776253546953659 0.0013626342848198842" pbc="T T T"
Si       2.86908899       4.99593170       3.71465412
Si      -0.75479421       0.68430660       1.77407129
Si       1.26981520       3.10086583       3.47100085
Si       4.24185000       7.83394643       2.01772414
Si      -1.22660352      -2.73055591       4.03036160
Si      -0.05130446       3.16421286       1.45836423
Si       0.37267027      -0.83549003       4.27401488
Si       1.02046445       5.40033955       1.21471063
Si       4.27502898       6.61201257      -0.00000053
Si      -2.50191832      -1.45946980       5.48872599
Si       0.98728548       6.62227341       3.23243530
Si      -2.43729681       1.32561199       3.23243573
Si       2.76076026       1.58482071       2.25628991
Si       3.01484166       4.66293236      -0.00000037
14
Lattice="6.607534931466952 2.4429301679038917 -0.9545801223598622 -0.4840429334617392 7.0280245851081 0.9545793605027164 -4.152094289211405 -4.030506933464068 5.431633575643426" Properties=species:S:1:pos:R:3 unique_starting_index=10 config_type=initial n_minim_iter=13 stress="-0.002814034161793912 -0.0007744475940909794 0.0034401969636971294 -0.0007744475940909794 -0.0035111183341397247 -0.0022242758723077212 0.0034401969636971294 -0.0022242758723077212 -0.0008171253511921735" pbc="T T T"
Si       2.87630095       5.03675134       3.70144800
Si      -0.73950829       0.65950609       1.73018479
Si       1.30776758       3.15047483       3.42749430
Si       4.30761385       7.92597366       2.00413806
Si      -1.20805591      -2.75783058       3.96871173
Si      -0.04768732       3.20699143       1.46292149
Si       0.36047746      -0.87155407       4.24266543
Si       1.02868254       5.41147862       1.18896746
Si       4.29251855       6.63906297      -0.00000053
Si      -2.48711841      -1.45535680       5.43163337
Si       1.04377784       6.69838930       3.19310605
Si      -2.45217149       1.29134740       3.19310649
Si       2.78534872       1.61533179       2.23852653
Si       3.03499060       4.69409590      -0.00000038
14
Lattice="6.628409180823633 2.4380900511479475 -0.9662109555114051 -0.49702353273766836 7.0450734877619015 0.9662101926721669 -4.1804922535673255 -4.020802324781457 5.409584523813741" Properties=species:S:1:pos:R:3 unique_starting_index=10 config_type=initial n_minim_iter=14 stress="-0.002674050085682334 -0.002413027865903049 -0.0008132980248819727 -0.002413027865903049 -0.004846026562732827 0.0005258421286903023 -0.0008132980248819727 0.0005258421286903023 -0.002388769469529208" pbc="T T T"
Si       2.82600441       5.04780537       3.68173353
Si      -0.73718413       0.62788173       1.72785021
Si       1.29451494       3.15697194       3.39682130
Si       4.29847322       7.93846837       2.01276201
Si      -1.18399896      -2.74759117       3.94953720
Si      -0.06872735       3.25504475       1.46004696
Si       0.34749050      -0.85675774       4.23444944
Si       1.02700095       5.42762164       1.17513440
Si       4.29126274       6.63712067      -0.00000053
Si      -2.50365371      -1.42730469       5.40958432
Si       1.03421142       6.72896935       3.18789694
Si      -2.48275003       1.28942884       3.18789738
Si       2.79850795       1.64393519       2.22168659
Si       3.02398975       4.67708134      -0.00000038
14
Lattice="6.647980538711273 2.4835542019988064 -0.9513484909048407 -0.46359677317529097 7.081579358677621 0.9513477214718172 -4.19325531181456 -4.070668415192034 5.39206077415815" Properties=species:S:1:pos:R:3 unique_starting_index=10 config_type=initial n_minim_iter=15 stress="-0.0001394383355279556 0.0004891732327232995 -0.001275337834556565 0.0004891732327232995 0.0003008687918047315 0.0008245757433912566 -0.001275337834556565 0.0008245757433912566 -0.0013104761304405606" pbc="T T T"
Si       2.84439199       5.08663754       3.68301592
Si      -0.72208233       0.61072023       1.70904407
Si       1.31812277       3.18316062       3.38545537
Si       4.35290109       8.00284831       2.00660417
Si      -1.17199687      -2.77701288       3.92940042
Si      -0.06024777       3.28601865       1.46265999
Si       0.35427236      -0.87353596       4.22696097
Si       1.04915258       5.45902412       1.16509911
Si       4.31903434       6.68007386      -0.00000054
Si      -2.49540419      -1.44467149       5.39206056
Si       1.08301933       6.78179858       3.17170382
Si      -2.48018122       1.27074195       3.17170427
Si       2.82172671       1.67238067       2.22035594
Si       3.04392373       4.70791240      -0.00000038
14
Lattice="6.669545367011296 2.515079157575431 -0.9339469868670182 -0.4436993464268621 7.114182378061963 0.9339462122754487 -4.198601190525817 -4.112679811029319 5.383576942735108" Properties=species:S:1:pos:R:3 unique_starting_index=10 config_type=initial n_minim_iter=16 stress="0.004091606961740082 0.003277118627908328 -0.001554966759631332 0.003277118627908328 0.007041355617821291 0.0010053706034913441 -0.001554966759631332 0.0010053706034913441 -4.638280264304216e-05" pbc="T T T"
Si       2.81381042       5.11325064       3.68510654
Si      -0.69060882       0.55174351       1.69846962
Si       1.31009214       3.17409329       3.37464848
Si       4.38404473       8.01392046       2.00892723
Si      -1.10755501      -2.80278461       3.92328480
Si      -0.07407994       3.35632317       1.46029176
Si       0.39616328      -0.86362726       4.23374286
Si       1.07711253       5.52340776       1.14983338
Si       4.33467675       6.70426734      -0.00000054
Si      -2.48917074      -1.46877361       5.38357673
Si       1.12648051       6.83306087       3.15876115
Si      -2.47411921       1.26416048       3.15876160
Si       2.86103150       1.71538597       2.22481478
Si       3.04382510       4.70775986      -0.00000038
14
Lattice="6.601629364836556 2.519040314204165 -0.9078441032298474 -0.4122141421589922 7.0538751955538075 0.9078433331708315 -4.118695607247934 -4.124392883096521 5.4409248990974275" Properties=species:S:1:pos:R:3 unique_starting_index=10 config_type=initial n_minim_iter=17 stress="0.0007331821229492791 0.002722044594230939 0.002488514768791855 0.002722044594230939 0.003183305572774543 -0.0016089614916929905 0.002488514768791855 -0.0016089614916929905 0.0033503721076537127" pbc="T T T"
Si       2.81551989       5.05835547       3.76030045
Si      -0.66146392       0.51906010       1.68062367
Si       1.28983870       3.13526994       3.43487935
Si       4.40042845       7.91145890       2.00604433
Si      -1.05068720      -2.80573800       3.94716427
Si      -0.05663714       3.33890995       1.49376026
Si       0.47499399      -0.88265247       4.27258537
Si       1.07088570       5.51942665       1.16833882
Si       4.29823512       6.64790456      -0.00000053
Si      -2.43640897      -1.52246891       5.44092469
Si       1.17307903       6.78298099       3.17438369
Si      -2.40038770       1.25604607       3.17438413
Si       2.86695102       1.71139359       2.26654020
Si       3.01657728       4.66561677      -0.00000038
14
Lattice="6.565673665963932 2.4836626707143212 -0.8872638630318124 -0.4297187783605641 7.006567924172611 0.8872630996240911 -4.066206106950554 -4.099705247653357 5.444235811037266" Properties=species:S:1:pos:R:3 unique_starting_index=10 config_type=initial n_minim_iter=18 stress="0.0005349808404622573 -0.004521132848705508 0.0017386779083118182 -0.004521132848705508 -0.0035345103264976486 -0.0011241500662007152 0.0017386779083118182 -0.0011241500662007152 0.0012157743147346081" pbc="T T T"
Si       2.73338795       4.98703797       3.78373415
Si      -0.64030183       0.43958230       1.66050089
Si       1.22623464       3.07913671       3.44249063
Si       4.37437289       7.77242353       2.00174398
Si      -0.94789411      -2.77709155       3.93898706
Si      -0.07367189       3.38640670       1.50524837
Si       0.55925920      -0.86919029       4.28023058
Si       1.04760828       5.54379606       1.16400452
Si       4.22935376       6.54136857      -0.00000053
Si      -2.42447785      -1.56051126       5.44423561
Si       1.19262741       6.77485102       3.16574903
Si      -2.35570197       1.28679501       3.16574947
Si       2.87420742       1.70448569       2.27848577
Si       2.97749252       4.60516597      -0.00000037
14
Lattice="6.536923585012891 2.504849178672652 -0.8778066369597531 -0.3985995696301883 6.98904564930375 0.8778058732572758 -4.043590158509882 -4.1169257010041065 5.451047271924839" Properties=species:S:1:pos:R:3 unique_starting_index=10 config_type=initial n_minim_iter=19 stress="-0.004582594508625066 -0.004698610934873605 0.0012387165285808147 -0.004698610934873605 -0.00881183436577565 -0.0008008975647559711 0.0012387165285808147 -0.0008008975647559711 -0.0037734868694337138" pbc="T T T"
Si       2.67451939       4.95603477       3.80170739
Si      -0.62179791       0.35595554       1.64933913
Si       1.19254981       3.05592191       3.44306349
Si       4.39201270       7.71862254       2.00798258
Si      -0.86769982      -2.75857760       3.93595963
Si      -0.06471595       3.45357815       1.51508725
Si       0.61426976      -0.85846474       4.29460352
Si       1.05979746       5.58480598       1.15644304
Si       4.20242723       6.49972241      -0.00000052
Si      -2.41873211      -1.60382417       5.45104707
Si       1.24938293       6.80370611       3.16442614
Si      -2.31137191       1.29643216       3.16442658
Si       2.89165789       1.73820235       2.28662011
Si       2.95875184       4.57618052      -0.00000037
14
Lattice="6.537480500196018 2.53759542692002 -0.9067034188361222 -0.36896670232451806 7.002992703513191 0.9067026513775714 -4.075226197447057 -4.129577590219286 5.479381872214945" Properties=species:S:1:pos:R:3 unique_starting_index=10 config_type=initial n_minim_iter=20 stress="-0.006138389236322478 -0.004986726032892224 -0.003638193333098333 -0.004986726032892224 -0.01062696185525703 0.0023522922122915855 -0.003638193333098333 0.0023522922122915855 -0.006834032369625354" pbc="T T T"
Si       2.60341446       4.94492670       3.80632122
Si      -0.63438168       0.27390401       1.67305990
Si       1.15119734       3.05535882       3.44565703
Si       4.40702419       7.71472338       2.03372364
Si      -0.82112816      -2.71505426       3.95939930
Si      -0.04558632       3.54795059       1.51998217
Si       0.63108897      -0.82548639       4.32006349
Si       1.08152161       5.64771935       1.15931766
Si       4.20319427       6.50090877      -0.00000052
Si      -2.46319091      -1.63630850       5.47938167
Si       1.28535153       6.86153396       3.19304183
Si      -2.29200329       1.32858551       3.19304227
Si       2.90839039       1.79816341       2.28633902
Si       2.94912211       4.56128662      -0.00000037
14
Lattice="6.567638694200393 2.6045157670350205 -0.9245876132987348 -0.3203188436383836 7.057958463606776 0.9245868360354943 -4.122282690066674 -4.185572252158326 5.506848147665624" Properties=species:S:1:pos:R:3 unique_starting_index=10 config_type=initial n_minim_iter=21 stress="-0.0006166104163243012 -0.002770581284677519 -0.0033579117773638047 -0.002770581284677519 -0.0031104217937714964 0.002171074477816038 -0.0033579117773638047 0.002171074477816038 -0.001953548847660834" pbc="T T T"
Si       2.57245334       4.95690070       3.79056995
Si      -0.65781246       0.19458997       1.71627744
Si       1.14685844       3.07141151       3.44062247
Si       4.45519295       7.78324626       2.06622446
Si      -0.78656814      -2.68614551       4.00740788
Si      -0.00165835       3.65722171       1.49943986
Si       0.63902676      -0.80065632       4.35735536
Si       1.13265610       5.73103965       1.14949206
Si       4.24099135       6.55936796      -0.00000053
Si      -2.51002538      -1.69195977       5.50684795
Si       1.34685770       6.95491795       3.21571705
Si      -2.27172811       1.35819919       3.21571750
Si       2.93976219       1.86521569       2.29113005
Si       2.96840570       4.59111176      -0.00000037
