16
Lattice="7.954907948666073 -1.433431676895917e-31 -4.876259532302233e-16 6.630855454533962e-35 34.777923979833645 -1.0222282627635576e-14 4.887578837000347e-16 2.34361544951833e-15 7.973373747362781" Properties=species:S:1:pos:R:3 unique_starting_index=98 config_type=initial n_minim_iter=1 energy=-2553.1875973639567 free_energy=-2553.1875973639567 pbc="T T T"
Si       2.62447328      21.55394700       1.24760987
Si       5.33043467       4.16498501       6.72576387
Si       6.60192726      30.61293897       6.72576387
Si       1.35298069      13.22397698       1.24760987
Si       5.33043467      13.22397698       6.72576387
Si       2.62447328      30.61293897       1.24760987
Si       1.35298069       4.16498501       1.24760987
Si       6.60192726      21.55394700       6.72576387
Si       3.08130837      21.43641720       3.98208815
Si       4.87359958       4.04745521       3.99128559
Si       7.05876234      30.73046877       3.99128559
Si       0.89614561      13.34150678       3.98208815
Si       4.87359958      13.34150678       3.99128559
Si       3.08130837      30.73046877       3.98208815
Si       0.89614561       4.04745521       3.98208815
Si       7.05876234      21.43641720       3.99128559
16
Lattice="6.8870147424453965 -1.7573088064520497e-31 -4.908292121657203e-16 7.933801789388657e-32 34.76251811534425 -6.811689224343859e-15 3.14118068343674e-16 2.6526525306449247e-15 6.272077936372194" Properties=species:S:1:pos:R:3 unique_starting_index=98 config_type=initial n_minim_iter=2 stress="0.03265224810107417 -1.0799291710378202e-17 3.0400445160312624e-18 -1.0799291710378202e-17 -1.3572334411494766e-05 2.02862176331024e-18 3.0400445160312624e-18 2.02862176331024e-18 -0.0004747372748556436" pbc="T T T"
Si       2.27285258      21.54392804       0.99005415
Si       4.61416217       4.16266898       5.28202379
Si       5.71635995      30.59984913       5.28202379
Si       1.17065479      13.21859008       0.99005415
Si       4.61416217      13.21859008       5.28202379
Si       2.27285258      30.59984913       0.99005415
Si       1.17065479       4.16266898       0.99005415
Si       5.71635995      21.54392804       5.28202379
Si       2.66696603      21.42739236       3.12474127
Si       4.22004871       4.04613330       3.14733666
Si       6.11047341      30.71638481       3.14733666
Si       0.77654134      13.33512575       3.12474127
Si       4.22004871      13.33512575       3.14733666
Si       2.66696603      30.71638481       3.12474127
Si       0.77654134       4.04613330       3.12474127
Si       6.11047341      21.42739236       3.14733666
16
Lattice="4.804907143106331 -2.625012107329771e-31 -3.027554082846099e-16 8.755974326051182e-32 34.756102414325774 -3.4828764297032845e-16 3.3681822183139255e-16 4.030080120883457e-15 5.368141661769036" Properties=species:S:1:pos:R:3 unique_starting_index=98 config_type=initial n_minim_iter=3 stress="0.07521576576272647 -1.581315683516373e-16 9.337734902565601e-17 -1.581315683516373e-16 -0.0005166377596884469 -5.953734820170309e-17 9.337734902565601e-17 -5.953734820170309e-17 -0.12177707421435877" pbc="T T T"
Si       1.58487654      21.53975670       0.84937945
Si       3.22003060       4.16170549       4.51876221
Si       3.98733011      30.59439693       4.51876221
Si       0.81757703      13.21634572       0.84937945
Si       3.22003060      13.21634572       4.51876221
Si       1.58487654      30.59439693       0.84937945
Si       0.81757703       4.16170549       0.84937945
Si       3.98733011      21.53975670       4.51876221
Si       1.86151796      21.42363300       2.67587093
Si       2.94338918       4.04558180       2.69227073
Si       4.26397153      30.71052062       2.69227073
Si       0.54093561      13.33246941       2.67587093
Si       2.94338918      13.33246941       2.69227073
Si       1.86151796      30.71052062       2.67587093
Si       0.54093561       4.04558180       2.67587093
Si       4.26397153      21.42363300       2.69227073
16
Lattice="4.261570341749257 -2.726359498624463e-31 1.8738973004312212e-16 1.4139596362627344e-31 34.76366949953595 1.2791370681476243e-15 7.760386717703577e-16 4.403365312443887e-15 5.2425672931794285" Properties=species:S:1:pos:R:3 unique_starting_index=98 config_type=initial n_minim_iter=4 stress="0.061966416638801945 -3.1478418842986407e-16 9.277172653277255e-17 -3.1478418842986407e-16 -0.000716047145655626 -1.2736457371448435e-16 9.277172653277255e-17 -1.2736457371448435e-16 -0.18170857849203856" pbc="T T T"
Si       1.40529556      21.54468357       0.82946423
Si       2.85627478       4.16284882       4.41310307
Si       3.53608073      30.60082068       4.41310307
Si       0.72548961      13.21898593       0.82946423
Si       2.85627478      13.21898593       4.41310307
Si       1.40529556      30.60082068       0.82946423
Si       0.72548961       4.16284882       0.82946423
Si       3.53608073      21.54468357       4.41310307
Si       1.65138215      21.42806011       2.61374167
Si       2.61018819       4.04622536       2.62882562
Si       3.78216732      30.71744414       2.62882562
Si       0.47940302      13.33560939       2.61374167
Si       2.61018819      13.33560939       2.62882562
Si       1.65138215      30.71744414       2.61374167
Si       0.47940302       4.04622536       2.61374167
Si       3.78216732      21.42806011       2.62882562
16
Lattice="3.8524491623059065 -1.4027782716707981e-30 6.603243817205244e-15 -3.63129811568147e-31 34.776702357291505 5.030603835083982e-15 7.116549420531042e-15 5.242071382656835e-15 5.4161669168882485" Properties=species:S:1:pos:R:3 unique_starting_index=98 config_type=initial n_minim_iter=5 stress="-0.020827838338810706 -3.3197285389475423e-16 -2.557403504021577e-16 -3.3197285389475423e-16 -0.0006581079681281478 -1.621040390374431e-16 -2.557403504021577e-16 -1.621040390374431e-16 -0.1778791871682671" pbc="T T T"
Si       1.27121879      21.55314575       0.86221479
Si       2.58123038       4.16479458       4.55395213
Si       3.19744337      30.61190778       4.55395213
Si       0.65500580      13.22355660       0.86221479
Si       2.58123038      13.22355660       4.55395213
Si       1.27121879      30.61190778       0.86221479
Si       0.65500580       4.16479458       0.86221479
Si       3.19744337      21.55314575       4.55395213
Si       1.49201039      21.43570835       2.69690182
Si       2.36043877       4.04735717       2.71926510
Si       3.41823497      30.72934519       2.71926510
Si       0.43421419      13.34099401       2.69690182
Si       2.36043877      13.34099401       2.71926510
Si       1.49201039      30.72934519       2.69690182
Si       0.43421419       4.04735717       2.69690182
Si       3.41823497      21.43570835       2.71926510
16
Lattice="3.8506210329019583 -2.764604031565389e-30 1.695180584903228e-14 -1.5098113308508328e-30 34.78868812023955 4.783295165566403e-15 1.7234383432111523e-14 5.166673980180084e-15 5.637204881921658" Properties=species:S:1:pos:R:3 unique_starting_index=98 config_type=initial n_minim_iter=6 stress="-0.01733268667765704 -1.5841447366896826e-16 -4.925183172074651e-16 -1.5841447366896826e-16 -8.621174779846294e-05 -1.789973287164444e-17 -4.925183172074651e-16 -1.789973287164444e-17 -0.021211598169881836" pbc="T T T"
Si       1.27025487      21.56092718       0.89497915
Si       2.58036617       4.16658312       4.74222573
Si       3.19556538      30.62210500       4.74222573
Si       0.65505565      13.22776094       0.89497915
Si       2.58036617      13.22776094       4.74222573
Si       1.27025487      30.62210500       0.89497915
Si       0.65505565       4.16658312       0.89497915
Si       3.19556538      21.56092718       4.74222573
Si       1.49166306      21.44274299       2.81413457
Si       2.35895798       4.04839893       2.82307032
Si       3.41697357      30.74028919       2.82307032
Si       0.43364746      13.34594513       2.81413457
Si       2.35895798      13.34594513       2.82307032
Si       1.49166306      30.74028919       2.81413457
Si       0.43364746       4.04839893       2.81413457
Si       3.41697357      21.44274299       2.82307032
16
Lattice="3.9433068657264423 2.2377334396962227e-30 7.944026965063622e-15 1.621361291652343e-29 34.79536432074724 5.642818140696649e-15 8.691129432903805e-15 5.369187618408059e-15 5.598574953442661" Properties=species:S:1:pos:R:3 unique_starting_index=98 config_type=initial n_minim_iter=7 stress="0.013252076059129467 -1.4002917167556534e-16 -2.5935476565274364e-16 -1.4002917167556534e-16 -9.612835634074333e-05 -4.7621841896115365e-17 -2.5935476565274364e-16 -4.7621841896115365e-17 -0.02082375805398588" pbc="T T T"
Si       1.29820996      21.56527041       0.87756549
Si       2.64509691       4.16758825       4.72100946
Si       3.26986339      30.62777607       4.72100946
Si       0.67344347      13.23009391       0.87756549
Si       2.64509691      13.23009391       4.72100946
Si       1.29820996      30.62777607       0.87756549
Si       0.67344347       4.16758825       0.87756549
Si       3.26986339      21.56527041       4.72100946
Si       1.53018832      21.44665248       2.81564929
Si       2.41311855       4.04897032       2.78292567
Si       3.50184175      30.74639400       2.78292567
Si       0.44146511      13.34871184       2.81564929
Si       2.41311855      13.34871184       2.78292567
Si       1.53018832      30.74639400       2.81564929
Si       0.44146511       4.04897032       2.81564929
Si       3.50184175      21.44665248       2.78292567
16
Lattice="4.058406921692717 -1.195024338751123e-29 1.4862557724656832e-14 -2.9489754172421694e-29 34.835094989039455 -9.88977588070712e-16 1.6342687878369142e-14 3.871602257890982e-15 5.434313728714933" Properties=species:S:1:pos:R:3 unique_starting_index=98 config_type=initial n_minim_iter=8 stress="0.020022097973980094 -5.522702596896978e-17 6.898828491130116e-16 -5.522702596896978e-17 -3.0599898482734024e-05 -1.0332346818512845e-17 6.898828491130116e-16 -1.0332346818512845e-17 -0.0032267287576903904" pbc="T T T"
Si       1.32332120      21.59103853       0.79687616
Si       2.73508572       4.17349103       4.63743757
Si       3.35252466      30.66160395       4.63743757
Si       0.70588226      13.24405646       0.79687616
Si       2.73508572      13.24405646       4.63743757
Si       1.32332120      30.66160395       0.79687616
Si       0.70588226       4.17349103       0.79687616
Si       3.35252466      21.59103853       4.63743757
Si       1.58763439      21.46999701       2.84073983
Si       2.47077253       4.05244952       2.59357390
Si       3.61683785      30.78264547       2.59357390
Si       0.44156907      13.36509798       2.84073983
Si       2.47077253      13.36509798       2.59357390
Si       1.58763439      30.78264547       2.84073983
Si       0.44156907       4.05244952       2.84073983
Si       3.61683785      21.46999701       2.59357390
16
Lattice="4.060816266255884 -1.3470618612848413e-29 8.317532325496381e-15 -4.7345166547971075e-29 34.8572347872082 5.512820400386933e-16 1.0084925299538147e-14 4.225145971561238e-15 5.346975826640327" Properties=species:S:1:pos:R:3 unique_starting_index=98 config_type=initial n_minim_iter=9 stress="0.01168245912109437 -2.7957890037132774e-17 1.1412356621814357e-16 -2.7957890037132774e-17 -1.954599984967817e-05 -1.3568675932105758e-18 1.1412356621814357e-16 -1.3568675932105758e-18 -0.008789997284285683" pbc="T T T"
Si       1.31810615      21.60538836       0.75901610
Si       2.74271012       4.17677097       4.58795973
Si       3.34851428      30.68046382       4.58795973
Si       0.71230199      13.25184643       0.75901610
Si       2.74271012      13.25184643       4.58795973
Si       1.31810615      30.68046382       0.75901610
Si       0.71230199       4.17677097       0.75901610
Si       3.34851428      21.60538836       4.58795973
Si       1.59457758      21.48301506       2.84814906
Si       2.46623868       4.05439766       2.49882677
Si       3.62498571      30.80283713       2.49882677
Si       0.43583055      13.37421973       2.84814906
Si       2.46623868      13.37421973       2.49882677
Si       1.59457758      30.80283713       2.84814906
Si       0.43583055       4.05439766       2.84814906
Si       3.62498571      21.48301506       2.49882677
16
Lattice="3.973080416339814 -9.843269178987339e-30 2.9762659434384426e-14 -2.6216008127514835e-29 34.848768806237935 6.3367374324736715e-15 3.126493466205278e-14 5.548357041200063e-15 5.3620291398519875" Properties=species:S:1:pos:R:3 unique_starting_index=98 config_type=initial n_minim_iter=10 stress="0.0009382601888155393 -7.047216739317205e-18 1.3421489705118709e-15 -7.047216739317205e-18 6.925661285251012e-06 -2.990861215625339e-19 1.3421489705118709e-15 -2.990861215625339e-19 -0.005287666297158403" pbc="T T T"
Si       1.28570531      21.59980724       0.75412160
Si       2.68737511       4.17542284       4.60790754
Si       3.27224551      30.67334597       4.60790754
Si       0.70083490      13.24896156       0.75412160
Si       2.68737511      13.24896156       4.60790754
Si       1.28570531      30.67334597       0.75412160
Si       0.70083490       4.17542284       0.75412160
Si       3.27224551      21.59980724       4.60790754
Si       1.56404852      21.47813104       2.89155820
Si       2.40903190       4.05374664       2.47047094
Si       3.55058872      30.79502217       2.47047094
Si       0.42249169      13.37063776       2.89155820
Si       2.40903190      13.37063776       2.47047094
Si       1.56404852      30.79502217       2.89155820
Si       0.42249169       4.05374664       2.89155820
Si       3.55058872      21.47813104       2.47047094
16
Lattice="3.8956121952676375 -6.71590404702289e-30 2.1037607783863922e-14 -1.2221028109938513e-29 34.811409260508306 2.5937387565857895e-15 2.2229599619502128e-14 4.6699390196074625e-15 5.4669365612945215" Properties=species:S:1:pos:R:3 unique_starting_index=98 config_type=initial n_minim_iter=11 stress="-0.002675946750881639 -6.841735303690895e-18 7.211993920125932e-16 -6.841735303690895e-18 3.820780398181322e-05 1.3664751769341597e-17 7.211993920125932e-16 1.3664751769341597e-17 0.010419555715745847" pbc="T T T"
Si       1.26240110      21.57550690       0.79370715
Si       2.63321109       4.16980227       4.67322942
Si       3.21020720      30.64160699       4.67322942
Si       0.68540499      13.23590236       0.79370715
Si       2.63321109      13.23590236       4.67322942
Si       1.26240110      30.64160699       0.79370715
Si       0.68540499       4.16980227       0.79370715
Si       3.21020720      21.57550690       4.67322942
Si       1.53178743      21.45624977       2.93030168
Si       2.36382477       4.05054514       2.53663488
Si       3.47959353      30.76086412       2.53663488
Si       0.41601867      13.35515949       2.93030168
Si       2.36382477      13.35515949       2.53663488
Si       1.53178743      30.76086412       2.93030168
Si       0.41601867       4.05054514       2.93030168
Si       3.47959353      21.45624977       2.53663488
16
Lattice="3.932695406266314 -1.3453837889991279e-29 1.4989576607602718e-14 -4.81972663234135e-29 34.81570486525555 5.654139396940329e-15 1.6278703806187848e-14 5.382551378022381e-15 5.408582939553932" Properties=species:S:1:pos:R:3 unique_starting_index=98 config_type=initial n_minim_iter=12 stress="0.002474245945583916 7.49602863990814e-20 3.707535765298566e-16 7.49602863990814e-20 1.7570873264512747e-05 -4.31021646794718e-18 3.707535765298566e-16 -4.31021646794718e-18 -0.0004441062597201076" pbc="T T T"
Si       1.27295874      21.57831915       0.78593094
Si       2.65973667       4.17046672       4.62265200
Si       3.23930644      30.64523814       4.62265200
Si       0.69338896      13.23738571       0.78593094
Si       2.65973667      13.23738571       4.62265200
Si       1.27295874      30.64523814       0.78593094
Si       0.69338896       4.17046672       0.78593094
Si       3.23930644      21.57831915       4.62265200
Si       1.54782831      21.45874749       2.91488926
Si       2.38486710       4.05089506       2.49369368
Si       3.51417601      30.76480981       2.49369368
Si       0.41851940      13.35695738       2.91488926
Si       2.38486710      13.35695738       2.49369368
Si       1.54782831      30.76480981       2.91488926
Si       0.41851940       4.05089506       2.91488926
Si       3.51417601      21.45874749       2.49369368
16
Lattice="3.668931908110918 -1.0786895634123747e-28 7.520570098753066e-15 -4.50773365142573e-28 34.578179177466666 5.316221622664896e-15 7.878151498581942e-15 5.256414081530641e-15 5.528481262770985" Properties=species:S:1:pos:R:3 unique_starting_index=98 config_type=initial n_minim_iter=13 stress="-0.019159806415283764 1.8170095628236445e-16 -4.346734844398325e-16 1.8170095628236445e-16 5.802705594108609e-06 -4.5944639059964087e-17 -4.346734844398325e-16 -4.5944639059964087e-17 -0.015142654342292642" pbc="T T T"
Si       1.18273762      21.42398446       0.99042089
Si       2.48619428       4.13489487       4.53806038
Si       3.01720358      30.44328431       4.53806038
Si       0.65172833      13.15419472       0.99042089
Si       2.48619428      13.15419472       4.53806038
Si       1.18273762      30.44328431       0.99042089
Si       0.65172833       4.13489487       0.99042089
Si       3.01720358      21.42398446       4.53806038
Si       1.44886094      21.31946730       3.06390854
Si       2.22007097       4.03037772       2.46457272
Si       3.28332690      30.54780146       2.46457272
Si       0.38560501      13.25871187       3.06390854
Si       2.22007097      13.25871187       2.46457272
Si       1.44886094      30.54780146       3.06390854
Si       0.38560501       4.03037772       3.06390854
Si       3.28332690      21.31946730       2.46457272
16
Lattice="3.6445870985910807 -2.7627311840894354e-28 2.1059981073917744e-14 -1.177114805656312e-27 34.53929674923574 5.158660991891901e-15 2.1383566103896936e-14 5.213266536090494e-15 5.542104606582518" Properties=species:S:1:pos:R:3 unique_starting_index=98 config_type=initial n_minim_iter=14 stress="-0.022443596566318953 2.2754733833236886e-16 1.5958350966322193e-15 2.2754733833236886e-16 -1.6264899832493364e-05 -4.5036032344128247e-17 1.5958350966322193e-15 -4.5036032344128247e-17 -0.024310774293092467" pbc="T T T"
Si       1.17419999      21.39872155       1.02063274
Si       2.47038711       4.12907318       4.52147186
Si       2.99649354      30.41022357       4.52147186
Si       0.64809356      13.14057519       1.02063274
Si       2.47038711      13.14057519       4.52147186
Si       1.17419999      30.41022357       1.02063274
Si       0.64809356       4.12907318       1.02063274
Si       2.99649354      21.39872155       4.52147186
Si       1.43993688      21.29666611       3.09092892
Si       2.20465022       4.02701773       2.45117569
Si       3.26223043      30.51227902       2.45117569
Si       0.38235667      13.24263064       3.09092892
Si       2.20465022      13.24263064       2.45117569
Si       1.43993688      30.51227902       3.09092892
Si       0.38235667       4.02701773       3.09092892
Si       3.26223043      21.29666611       2.45117569
16
Lattice="3.6711665108632654 -4.554570478294852e-28 1.006448625671668e-14 -1.9733098991730895e-27 34.48769427439102 4.4923086412735805e-15 1.0378835038673465e-14 5.0489296302088595e-15 5.578454301880429" Properties=species:S:1:pos:R:3 unique_starting_index=98 config_type=initial n_minim_iter=15 stress="-0.0004687267895095548 2.949200815537654e-16 7.0138693701610375e-16 2.949200815537654e-16 -2.221946120862913e-05 -3.40122363282966e-17 7.0138693701610375e-16 -3.40122363282966e-17 -0.025353672189367817" pbc="T T T"
Si       1.18462999      21.36522461       1.05514801
Si       2.48653652       4.12137748       4.52330630
Si       3.02021324      30.36631680       4.52330630
Si       0.65095327      13.12246966       1.05514801
Si       2.48653652      13.12246966       4.52330630
Si       1.18462999      30.36631680       1.05514801
Si       0.65095327       4.12137748       1.05514801
Si       3.02021324      21.36522461       4.52330630
Si       1.44857138      21.26637519       3.13537763
Si       2.22259513       4.02252806       2.44307667
Si       3.28415464      30.46516622       2.44307667
Si       0.38701187      13.22131908       3.13537763
Si       2.22259513      13.22131908       2.44307667
Si       1.44857138      30.46516622       3.13537763
Si       0.38701187       4.02252806       3.13537763
Si       3.28415464      21.26637519       2.44307667
16
Lattice="3.6073770770811238 -1.2284569832592836e-25 3.431339984217052e-14 -5.36827305201007e-25 34.11999407883989 5.823453463434553e-15 3.377802825855026e-14 5.251143439476213e-15 5.991693599136107" Properties=species:S:1:pos:R:3 unique_starting_index=98 config_type=initial n_minim_iter=16 stress="0.0022073237997844116 7.745994370405423e-16 7.957093087328893e-15 7.745994370405423e-16 -4.7825436540001545e-05 1.458383897447757e-19 7.957093087328893e-15 1.458383897447757e-19 -0.035796200434364406" pbc="T T T"
Si       1.18172014      21.12656973       1.37184377
Si       2.42565694       4.06657269       4.61984983
Si       2.98540868      30.05342139       4.61984983
Si       0.62196840      12.99342435       1.37184377
Si       2.42565694      12.99342435       4.61984983
Si       1.18172014      30.05342139       1.37184377
Si       0.62196840       4.06657269       1.37184377
Si       2.98540868      21.12656973       4.61984983
Si       1.40572727      21.05050135       3.46381873
Si       2.20164981       3.99050431       2.52787486
Si       3.20941580      30.12948976       2.52787486
Si       0.39796127      13.06949272       3.46381873
Si       2.20164981      13.06949272       2.52787486
Si       1.40572727      30.12948976       3.46381873
Si       0.39796127       3.99050431       3.46381873
Si       3.20941580      21.05050135       2.52787486
16
Lattice="3.6036506539007833 -2.0584726625810851e-25 1.3012562104244112e-14 -9.004825577609821e-25 34.029347060706996 6.2358710042186206e-15 1.2200092849690563e-14 5.315019255873284e-15 6.1103095712599735" Properties=species:S:1:pos:R:3 unique_starting_index=98 config_type=initial n_minim_iter=17 stress="0.0018193110526394131 6.769367801185756e-16 3.2498892115175568e-15 6.769367801185756e-16 -4.780383159485784e-05 6.913830369856751e-17 3.2498892115175568e-15 6.913830369856751e-17 -0.02202497446466193" pbc="T T T"
Si       1.18689617      21.06778072       1.45931036
Si       2.41675449       4.05310719       4.65099921
Si       2.98872149      29.97623987       4.65099921
Si       0.61492916      12.96156634       1.45931036
Si       2.41675449      12.96156634       4.65099921
Si       1.18689617      29.97623987       1.45931036
Si       0.61492916       4.05310719       1.45931036
Si       2.98872149      21.06778072       4.65099921
Si       1.39787840      20.99723801       3.54561501
Si       2.20577225       3.98256448       2.56469456
Si       3.19970373      30.04678258       2.56469456
Si       0.40394692      13.03210905       3.54561501
Si       2.20577225      13.03210905       2.56469456
Si       1.39787840      30.04678258       3.54561501
Si       0.40394692       3.98256448       3.54561501
Si       3.19970373      20.99723801       2.56469456
16
Lattice="3.679758275673725 -8.61498005660946e-25 2.039580916186186e-14 -3.794033306599371e-24 33.95347666941064 2.421600271888758e-15 1.9504937308424302e-14 4.407339382706911e-15 6.29286931421067" Properties=species:S:1:pos:R:3 unique_starting_index=98 config_type=initial n_minim_iter=18 stress="0.03374405213553834 2.8115309503571625e-16 2.4753686817847785e-15 2.8115309503571625e-16 3.2260185421230856e-06 4.0164727862245176e-17 2.4753686817847785e-15 4.0164727862245176e-17 0.005744414877596238" pbc="T T T"
Si       1.23339620      21.01872895       1.54446538
Si       2.44636208       4.04199061       4.74840394
Si       3.07327533      29.91148606       4.74840394
Si       0.60648294      12.93474772       1.54446538
Si       2.44636208      12.93474772       4.74840394
Si       1.23339620      29.91148606       1.54446538
Si       0.60648294       4.04199061       1.54446538
Si       3.07327533      21.01872895       4.74840394
Si       1.40596775      20.95250340       3.60010528
Si       2.27379053       3.97576506       2.69276403
Si       3.24584689      29.97771161       2.69276403
Si       0.43391139      13.00097327       3.60010528
Si       2.27379053      13.00097327       2.69276403
Si       1.40596775      29.97771161       3.60010528
Si       0.43391139       3.97576506       3.60010528
Si       3.24584689      20.95250340       2.69276403
16
Lattice="3.5989627180196386 -3.445170165569523e-24 3.569605868691457e-14 -1.498764941155494e-23 33.90102106340891 2.6251167676879466e-15 3.4259447827928455e-14 4.438805783531867e-15 6.427812726268684" Properties=species:S:1:pos:R:3 unique_starting_index=98 config_type=initial n_minim_iter=19 stress="0.004048776926990224 2.263541056244955e-16 4.374368518967696e-15 2.263541056244955e-16 -7.683999846586875e-06 -5.960784933714678e-17 4.374368518967696e-15 -5.960784933714678e-17 -0.009587387741511688" pbc="T T T"
Si       1.22855050      20.98461240       1.62001174
Si       2.37041222       4.03410187       4.80780098
Si       3.02803186      29.86691920       4.80780098
Si       0.57093086      12.91640867       1.62001174
Si       2.37041222      12.91640867       4.80780098
Si       1.22855050      29.86691920       1.62001174
Si       0.57093086       4.03410187       1.62001174
Si       3.02803186      20.98461240       4.80780098
Si       1.35286157      20.92177750       3.62643682
Si       2.24610115       3.97126697       2.80137591
Si       3.15234293      29.92975409       2.80137591
Si       0.44661979      12.97924356       3.62643682
Si       2.24610115      12.97924356       2.80137591
Si       1.35286157      29.92975409       3.62643682
Si       0.44661979       3.97126697       3.62643682
Si       3.15234293      20.92177750       2.80137591
16
Lattice="3.495054927734829 -3.492322860520723e-24 2.555670424277e-14 -1.4862765404574475e-23 33.813013284521425 4.1664283490524625e-15 2.317717762096057e-14 4.758446527968322e-15 6.670004153299629" Properties=species:S:1:pos:R:3 unique_starting_index=98 config_type=initial n_minim_iter=20 stress="-0.02176208673680366 6.650158367783267e-17 3.161441889697811e-15 6.650158367783267e-17 8.528340236891705e-06 -1.0788186291187489e-16 3.161441889697811e-15 -1.0788186291187489e-16 -0.002734599175391503" pbc="T T T"
Si       1.22804107      20.92756416       1.68759818
Si       2.26701386       4.02105752       4.98240598
Si       2.97556853      29.79195576       4.98240598
Si       0.51948640      12.88544912       1.68759818
Si       2.26701386      12.88544912       4.98240598
Si       1.22804107      29.79195576       1.68759818
Si       0.51948640       4.02105752       1.68759818
Si       2.97556853      20.92756416       4.98240598
Si       1.27884153      20.87003585       3.76203630
Si       2.21621340       3.96352921       2.90796785
Si       3.02636899      29.84948408       2.90796785
Si       0.46868594      12.94297743       3.76203630
Si       2.21621340      12.94297743       2.90796785
Si       1.27884153      29.84948408       3.76203630
Si       0.46868594       3.96352921       3.76203630
Si       3.02636899      20.87003585       2.90796785
16
Lattice="3.4931559910929852 -2.299934581393799e-24 2.2069042272886267e-14 -9.70248600305345e-24 33.709166071844024 1.8463287144173884e-15 1.927035619153767e-14 4.203599940128914e-15 6.8215013521212455" Properties=species:S:1:pos:R:3 unique_starting_index=98 config_type=initial n_minim_iter=21 stress="0.0016494590771199468 1.2915274388520863e-17 2.330768347288516e-15 1.2915274388520863e-17 3.891565579714936e-06 2.6390979144304156e-18 2.330768347288516e-15 2.6390979144304156e-18 0.0028970391778571983" pbc="T T T"
Si       1.24776552      20.86021867       1.77922720
Si       2.24539047       4.00563563       5.04227416
Si       2.99434352      29.70353044       5.04227416
Si       0.49881247      12.84894740       1.77922720
Si       2.24539047      12.84894740       5.04227416
Si       1.24776552      29.70353044       1.77922720
Si       0.49881247       4.00563563       1.77922720
Si       2.99434352      20.86021867       5.04227416
Si       1.25775503      20.80901171       3.88551424
Si       2.23540096       3.95442867       2.93598711
Si       3.00433303      29.75473740       2.93598711
Si       0.48882296      12.90015436       3.88551424
Si       2.23540096      12.90015436       2.93598711
Si       1.25775503      29.75473740       3.88551424
Si       0.48882296       3.95442867       3.88551424
Si       3.00433303      20.80901171       2.93598711
