6
Lattice="3.354033408032193 0.734073638408014 4.9658260859278365e-15 0.5154554669516228 5.74505939270433 7.128463693926433e-15 -1.2629381267729567e-14 -1.166909392293712e-14 10.326040511370328" Properties=species:S:1:pos:R:3 unique_starting_index=22 config_type=initial n_minim_iter=1 energy=-974.2377799316572 free_energy=-974.2377799316572 pbc="T T T"
Si       3.04844863       2.42052113       0.15989961
Si       0.82104025       4.05861190       0.15989961
Si       2.55766901       4.26648920       6.42257163
Si       1.31181987       2.21264383       6.42257163
Si       1.25729045       2.33093641       8.73016603
Si       2.61219842       4.14819662       8.73016603
6
Lattice="3.354022265942663 0.7696078531564472 5.005968417818689e-15 0.5739855948818335 5.755723753999941 7.212103277766984e-15 -1.2605590825059154e-14 -1.164728658055142e-14 10.30674822054611" Properties=species:S:1:pos:R:3 unique_starting_index=22 config_type=initial n_minim_iter=2 stress="0.0002862376628329264 0.0017326020034339005 3.540524501040167e-17 0.0017326020034339005 0.002059693397695652 2.8552616943872317e-18 3.540524501040167e-17 2.8552616943872317e-18 -2.1407913469967928e-05" pbc="T T T"
Si       3.06227219       2.45510328       0.15813689
Si       0.86573567       4.07022833       0.15813689
Si       2.60103637       4.29890036       6.40986280
Si       1.32697149       2.22643125       6.40986280
Si       1.28329801       2.33795077       8.71602877
Si       2.64470985       4.18738083       8.71602877
6
Lattice="3.3314127906149094 0.7938191906536666 5.005671974486885e-15 0.6335415984713889 5.6572167001172255 7.173649047197206e-15 -1.2542030476939269e-14 -1.1588971291452877e-14 10.255189302246835" Properties=species:S:1:pos:R:3 unique_starting_index=22 config_type=initial n_minim_iter=3 stress="-0.010354065412810618 0.004226981953370928 2.700056915836141e-17 0.004226981953370928 -0.007974958619406735 -3.541058250276906e-18 2.700056915836141e-17 -3.541058250276906e-18 -0.005709598366546198" pbc="T T T"
Si       3.03741285       2.44756281       0.14869642
Si       0.92754154       4.00347308       0.14869642
Si       2.64406015       4.25909158       6.37230757
Si       1.32089424       2.19194431       6.37230757
Si       1.33390379       2.26112701       8.68656699
Si       2.63105060       4.18990888       8.68656699
6
Lattice="3.3661266395843445 0.8030446129794917 5.0585531936076e-15 0.6512314106206992 5.672966920366706 7.213096034955179e-15 -1.2610671825844487e-14 -1.16518454579024e-14 10.310842942869055" Properties=species:S:1:pos:R:3 unique_starting_index=22 config_type=initial n_minim_iter=4 stress="0.005802772487534611 0.0052199672236406805 -8.768602511379609e-18 0.0052199672236406805 0.004094972011473303 1.1304975138638173e-16 -8.768602511379609e-18 1.1304975138638173e-16 0.003895230476319995" pbc="T T T"
Si       3.06024215       2.45932200       0.14610480
Si       0.95711590       4.01668953       0.14610480
Si       2.68715772       4.28227706       6.40313031
Si       1.33020033       2.19373447       6.40313031
Si       1.37155945       2.23725793       8.74086547
Si       2.64579860       4.23875361       8.74086547
6
Lattice="3.325281512937041 0.7501259484511927 4.948789118724155e-15 0.5553694566578731 5.668130187115409 7.090405153605738e-15 -1.250528082902511e-14 -1.1555194320507832e-14 10.225357828900803" Properties=species:S:1:pos:R:3 unique_starting_index=22 config_type=initial n_minim_iter=5 stress="-0.003125147140055809 -0.0021855460540055596 -2.7327538588384265e-17 -0.0021855460540055596 0.00122295602622092 1.1192417286451756e-17 -2.7327538588384265e-17 1.1192417286451756e-17 -0.0020478128955481087" pbc="T T T"
Si       3.00051888       2.40836601       0.14465781
Si       0.88013209       4.00989012       0.14465781
Si       2.58796860       4.24662544       6.35163000
Si       1.29268237       2.17163069       6.35163000
Si       1.31679906       2.20225601       8.66704564
Si       2.56385191       4.21600013       8.66704564
6
Lattice="3.340859336420227 0.7369007056459945 4.95288696765644e-15 0.5647529153576762 5.532690689112402 6.9488490970141515e-15 -1.2518802408087116e-14 -1.1567509312790364e-14 10.23629095416189" Properties=species:S:1:pos:R:3 unique_starting_index=22 config_type=initial n_minim_iter=6 stress="-0.001783356389105089 -0.0014670289816639736 -2.0766370041546018e-16 -0.0014670289816639736 -0.00187023560960127 -1.293630422822957e-16 -2.0766370041546018e-16 -1.293630422822957e-16 -0.0006840790443358283" pbc="T T T"
Si       3.01293843       2.34503987       0.13832287
Si       0.89267382       3.92455153       0.13832287
Si       2.60237047       4.16343823       6.35329472
Si       1.30324178       2.10615316       6.35329472
Si       1.32796847       2.09183595       8.68792876
Si       2.57764378       4.17775544       8.68792876
6
Lattice="3.36044058808746 0.7240011148918334 4.96225845378508e-15 0.5720490159644784 5.412148263453193 6.821580451529621e-15 -1.2495853929722232e-14 -1.154641779738932e-14 10.217671764786441" Properties=species:S:1:pos:R:3 unique_starting_index=22 config_type=initial n_minim_iter=7 stress="0.0004727965772860197 -0.0014938473556400807 -2.341506529995033e-16 -0.0014938473556400807 0.0004104056314119377 -1.0301406013163526e-16 -2.341506529995033e-16 -1.0301406013163526e-16 -0.0017134786347468365" pbc="T T T"
Si       3.03788365       2.27549765       0.13445417
Si       0.89460595       3.86065173       0.13445417
Si       2.61165994       4.09691480       6.33930151
Si       1.32082967       2.03923458       6.33930151
Si       1.32398763       1.97910723       8.67817999
Si       2.60850198       4.15704215       8.67817999
6
Lattice="3.3858552843470138 0.7354880816979824 5.006327229417911e-15 0.70653161836514 4.90543385345696 6.413489273366664e-15 -1.2661996406117948e-14 -1.1698621802944455e-14 10.352396669646893" Properties=species:S:1:pos:R:3 unique_starting_index=22 config_type=initial n_minim_iter=8 stress="-0.028825514982805705 -0.0029713468556447887 -4.3525270849713974e-16 -0.0029713468556447887 -0.014940008811377737 1.2664320767910651e-17 -4.3525270849713974e-16 1.2664320767910651e-17 -0.019237627246752355" pbc="T T T"
Si       3.07849189       2.05094749       0.12173256
Si       1.01389501       3.58997444       0.12173256
Si       2.72215877       3.85129566       6.40844369
Si       1.37022813       1.78962627       6.40844369
Si       1.38709207       1.53791192       8.82154496
Si       2.70529484       4.10301001       8.82154496
6
Lattice="3.3869036157467987 0.7358682591269116 5.00803231548495e-15 0.7093377617450632 4.8963238837837055 6.406584857088541e-15 -1.266713630797626e-14 -1.1703403872337932e-14 10.35656124278332" Properties=species:S:1:pos:R:3 unique_starting_index=22 config_type=initial n_minim_iter=9 stress="-0.029374931375742694 -0.0025110179112464584 -5.332834298666745e-16 -0.0025110179112464584 -0.017094517331070893 1.1546687530279684e-16 -5.332834298666745e-16 1.1546687530279684e-16 -0.019103534099605964" pbc="T T T"
Si       3.07976928       2.04712885       0.12160845
Si       1.01647210       3.58506329       0.12160845
Si       2.72483261       3.84691721       6.41078563
Si       1.37140877       1.78527493       6.41078563
Si       1.38840448       1.53033884       8.82550284
Si       2.70783690       4.10185330       8.82550284
6
Lattice="3.433842949132037 0.7814141786039578 5.116854505222357e-15 0.789329244600065 4.920252059005725 6.531215098985016e-15 -1.2981379133085678e-14 -1.1991751980569624e-14 10.611315413144672" Properties=species:S:1:pos:R:3 unique_starting_index=22 config_type=initial n_minim_iter=10 stress="-0.004573412663284517 0.00028673659650821647 -3.1830904380643596e-16 0.00028673659650821647 0.0054583410022124934 -1.7032185080001115e-17 -3.1830904380643596e-16 -1.7032185080001115e-17 0.008886233542236126" pbc="T T T"
Si       3.13487809       2.08702907       0.13981383
Si       1.08829411       3.61463716       0.13981383
Si       2.81694430       3.89695059       6.57376534
Si       1.40622790       1.80471564       6.57376534
Si       1.43623403       1.55310016       9.02209645
Si       2.78693816       4.14856608       9.02209645
6
Lattice="3.493788240506993 0.7842503016848765 5.1933196630095476e-15 0.8124060006517473 4.87910170914472 6.512756558355006e-15 -1.2809038469849085e-14 -1.1834024488157561e-14 10.471472709743278" Properties=species:S:1:pos:R:3 unique_starting_index=22 config_type=initial n_minim_iter=11 stress="-0.004030716402144344 0.0004663386627365706 -2.6700668504530554e-16 0.0004663386627365706 0.0020701553458015143 3.7393858189950534e-17 -2.6700668504530554e-16 3.7393858189950534e-17 0.0001887956392022903" pbc="T T T"
Si       3.19379587       2.07894442       0.14437898
Si       1.11239838       3.58440759       0.14437898
Si       2.86595802       3.87025060       6.49449718
Si       1.44023622       1.79310141       6.49449718
Si       1.46273233       1.54871173       8.88942467
Si       2.84346191       4.11464028       8.88942467
6
Lattice="3.545563569069468 0.7831924267250265 5.255397111988918e-15 0.8277883909975088 4.836895140474124 6.483756286256355e-15 -1.275213693684927e-14 -1.1781964838893246e-14 10.425232226808678" Properties=species:S:1:pos:R:3 unique_starting_index=22 config_type=initial n_minim_iter=12 stress="-0.0021135021721789007 0.00011579875050866786 -2.6097158291160873e-16 0.00011579875050866786 0.0006123769319875727 -2.167032193497091e-17 -2.6097158291160873e-16 -2.167032193497091e-17 -0.003946164816027583" pbc="T T T"
Si       3.24331582       2.07178680       0.14903960
Si       1.13003614       3.54830077       0.14903960
Si       2.90364356       3.83709883       6.47058926
Si       1.46970841       1.78298874       6.47058926
Si       1.48661291       1.54527126       8.84010127
Si       2.88673905       4.07481631       8.84010127
6
Lattice="3.625587470201191 0.7792044001645537 5.34861949316744e-15 0.8514503305301739 4.753762298449949 6.418496097436155e-15 -1.2840085851915221e-14 -1.1862639412248548e-14 10.496254512881759" Properties=species:S:1:pos:R:3 unique_starting_index=22 config_type=initial n_minim_iter=13 stress="0.0019166033316686982 -0.0011015542198674819 -1.471374377524693e-16 -0.0011015542198674819 9.397052663736985e-05 -5.556985143571077e-17 -1.471374377524693e-16 -5.556985143571077e-17 -0.0019536168345996524" pbc="T T T"
Si       3.31936372       2.06698731       0.15722858
Si       1.15767408       3.46597938       0.15722858
Si       2.95940961       3.76439157       6.51841996
Si       1.51762819       1.76857513       6.51841996
Si       1.53152532       1.54156789       8.88940158
Si       2.94551248       3.99139881       8.88940158
6
Lattice="3.620809824554033 0.7943783943559053 5.3596696265741505e-15 0.8771888314172018 4.751562304501956 6.4470631218939546e-15 -1.2951625861012262e-14 -1.196499362673165e-14 10.586198391784837" Properties=species:S:1:pos:R:3 unique_starting_index=22 config_type=initial n_minim_iter=14 stress="0.0005927992344525043 -0.0001463278071979017 -8.034656057268505e-17 -0.0001463278071979017 7.23652499500702e-05 1.2706152400918813e-17 -8.034656057268505e-17 1.2706152400918813e-17 0.002580928582060959" pbc="T T T"
Si       3.31998210       2.10019263       0.15692392
Si       1.17801656       3.44574807       0.15692392
Si       2.97984027       3.76465164       6.57116718
Si       1.51815839       1.78128905       6.57116718
Si       1.55409249       1.55353834       8.97033812
Si       2.94390617       3.99240236       8.97033812
6
Lattice="3.6471043505963783 0.8049355056465829 5.4034916322156344e-15 0.9016870579551847 4.740714643927388 6.464275655588841e-15 -1.2887133743471344e-14 -1.1906108805303138e-14 10.533354062826836" Properties=species:S:1:pos:R:3 unique_starting_index=22 config_type=initial n_minim_iter=15 stress="-0.0007180924283416531 0.0006142904734604003 -8.518746279857771e-17 0.0006142904734604003 -0.0025602638427000843 -7.954011465786901e-19 -8.518746279857771e-17 -7.954011465786901e-19 -0.0015876940883069728" pbc="T T T"
Si       3.35135754       2.12959767       0.15757960
Si       1.19743387       3.41605248       0.15757960
Si       3.01559098       3.75758225       6.54045412
Si       1.53320043       1.78806789       6.54045412
Si       1.58556255       1.55639042       8.92203187
Si       2.96322886       3.98925973       8.92203187
6
Lattice="3.6168394553838246 0.7977018588343546 5.358063563245354e-15 0.8743673233113927 4.787676371789571 6.483512232507513e-15 -1.2860074117063922e-14 -1.1881529859509969e-14 10.510964261621625" Properties=species:S:1:pos:R:3 unique_starting_index=22 config_type=initial n_minim_iter=16 stress="0.0015650775134722673 0.0006351596804656629 -1.1122611805140376e-16 0.0006351596804656629 0.0019006527059803673 2.8680449011826254e-17 -1.1122611805140376e-16 2.8680449011826254e-17 0.001062108593386702" pbc="T T T"
Si       3.32763561       2.15155744       0.15821921
Si       1.16357117       3.43382079       0.15821921
Si       2.97945563       3.78760516       6.52775248
Si       1.51175115       1.79777307       6.52775248
Si       1.56829222       1.54930345       8.90089174
Si       2.92291456       4.03607478       8.90089174
6
Lattice="3.584386135626549 0.779498476075621 5.297613037112843e-15 0.8348388197734117 4.803032004602766 6.452172690556491e-15 -1.2825111146302646e-14 -1.184969833989137e-14 10.482280125530163" Properties=species:S:1:pos:R:3 unique_starting_index=22 config_type=initial n_minim_iter=17 stress="-0.0003586461360983237 0.0001253041952947232 -1.803849311360517e-16 0.0001253041952947232 -0.000511661884774179 2.10195998621097e-17 -1.803849311360517e-16 2.10195998621097e-17 0.00018329303045394908" pbc="T T T"
Si       3.29296153       2.14316381       0.15455135
Si       1.12626342       3.43936667       0.15455135
Si       2.93101272       3.78923972       6.50818263
Si       1.48821224       1.79329076       6.50818263
Si       1.54158531       1.53540068       8.88159332
Si       2.87763965       4.04712980       8.88159332
6
Lattice="3.5865491561296565 0.7800194690781916 5.300706946570866e-15 0.8348429704498008 4.808609312879371 6.458192431597742e-15 -1.2803510819872735e-14 -1.1830096385225962e-14 10.464494241575165" Properties=species:S:1:pos:R:3 unique_starting_index=22 config_type=initial n_minim_iter=18 stress="-0.00046057618215654324 8.78729610547077e-05 -1.5219576988585253e-16 8.78729610547077e-05 -0.00029761434420033796 -5.250334513783414e-17 -1.5219576988585253e-16 -5.250334513783414e-17 -0.0003998408997287558" pbc="T T T"
Si       3.29177880       2.14789796       0.15312371
Si       1.12961332       3.44073082       0.15312371
Si       2.93379471       3.79276527       6.49664886
Si       1.48759741       1.79586351       6.49664886
Si       1.54641937       1.53772882       8.86817978
Si       2.87497276       4.05089996       8.86817978
6
Lattice="3.583396637303831 0.7776482917278444 5.294093656102943e-15 0.8290359725209167 4.814370761132997 6.457443594706662e-15 -1.2791600395359149e-14 -1.18192896713427e-14 10.454691403552086" Properties=species:S:1:pos:R:3 unique_starting_index=22 config_type=initial n_minim_iter=19 stress="-0.000266778750516971 3.767871089856066e-05 -1.4169765939162506e-16 3.767871089856066e-05 -0.0002754319725697604 -2.397929647016642e-18 -1.4169765939162506e-16 -2.397929647016642e-18 -0.00023919664980102538" pbc="T T T"
Si       3.28655175       2.14766354       0.15218327
Si       1.12588086       3.44435551       0.15218327
Si       2.92812438       3.79619791       6.49017692
Si       1.48430823       1.79582114       6.49017692
Si       1.54428290       1.53518340       8.86105539
Si       2.86814971       4.05683566       8.86105539
6
Lattice="3.5816487904165464 0.7759764049699043 5.2899939130409175e-15 0.8250231751862307 4.818393559678012 6.4569324033827856e-15 -1.2785903708059644e-14 -1.1814173817611555e-14 10.449937747072713" Properties=species:S:1:pos:R:3 unique_starting_index=22 config_type=initial n_minim_iter=20 stress="-1.218733992289599e-05 -6.316379503875777e-05 -1.0724841598015628e-16 -6.316379503875777e-05 -3.083214570171487e-05 -1.430511658751712e-17 -1.0724841598015628e-16 -1.430511658751712e-17 7.143484428540031e-06" pbc="T T T"
Si       3.28348803       2.14767613       0.15163161
Si       1.12318394       3.44669383       0.15163161
Si       2.92410455       3.79838356       6.48697039
Si       1.48256741       1.79598641       6.48697039
Si       1.54271247       1.53384827       8.85776431
Si       2.86395950       4.06052169       8.85776431
