14
Lattice="16.318638533908533 -1.2227818317039523 2.989568762381544 -1.9163697276365113 8.75910434780012 1.5473549106861553 -2.241501134614681 1.4879523828088548 4.374326126948897" Properties=species:S:1:pos:R:3 unique_starting_index=20 config_type=initial n_minim_iter=19 energy=-2284.7936791289326 free_energy=-2284.7936791289326 pbc="T T T"
Si       8.80213406       5.91284208       6.88772388
Si      10.85569041       2.59226298       3.02292177
Si       3.35863362       3.11143282       2.02352592
Si       1.30507726       6.43201192       5.88832803
Si      10.27755061       4.99702114       5.95872988
Si      10.94249813       3.56586732       4.73282892
Si       1.88321706       4.02725376       2.95251992
Si       1.21826955       5.45840758       4.17842088
Si       3.48343887       4.96308118       3.46862603
Si       2.64290541       4.63376116       5.17498030
Si       8.67732880       4.06119372       5.44262377
Si       9.51786226       4.39051374       3.73626950
Si       7.26264745       4.16210370       3.67295095
Si       4.89812022       4.86217120       5.23829885
