8
Lattice="7.328093064013187 -1.6507058667681123e-15 -7.041254827994915e-51 -3.6640465320065916 6.3463147547319645 6.879868288788348e-50 5.892787630648137e-51 -6.308226887809491e-50 6.132840980583061" Properties=species:S:1:pos:R:3 unique_starting_index=80 config_type=initial n_minim_iter=1 energy=-1300.4227134748483 free_energy=-1300.4227134748483 pbc="T T T"
Si       3.67674866       4.13884151       4.37211825
Si       1.90537648       1.11473761       4.37211825
Si       5.41001337       1.09273626       4.37211825
Si       1.74596684       5.25357892       4.37211825
Si       0.01270213       2.20747366       4.37211825
Si      -1.75867005       5.23157756       4.37211825
Si       3.66404617       2.11543846       3.54364761
Si      -0.00000036       4.23087671       3.54364761
8
Lattice="7.287889832002902 -1.649816024502719e-15 -1.5405149015557528e-50 -3.643944916001449 6.311497734496819 5.273740598269275e-50 -9.641407179363714e-52 6.815926600207137e-48 6.31963666587329" Properties=species:S:1:pos:R:3 unique_starting_index=80 config_type=initial n_minim_iter=2 stress="-0.0027349963809449314 2.2487477539251127e-16 3.093932217482966e-17 2.2487477539251127e-16 -0.002734996380945286 -9.915636512897174e-17 3.093932217482966e-17 -9.915636512897174e-17 -0.0014642977166791319" pbc="T T T"
Si       3.64166160       4.12454833       4.50824645
Si       1.89509504       1.09149791       4.50824645
Si       5.39507703       1.09545212       4.50824645
Si       1.75113212       5.21604604       4.50824645
Si      -0.00228332       2.18694982       4.50824645
Si      -1.74884988       5.22000024       4.50824645
Si       3.64394456       2.10383279       3.64269774
Si      -0.00000036       4.20766537       3.64269774
8
Lattice="7.313520089362129 -1.639115690391714e-15 -5.426334511089448e-50 -3.6567600446810626 6.333694188475443 -4.9084957150016185e-50 -3.3397673046649243e-50 6.847567173938262e-48 6.346280313805779" Properties=species:S:1:pos:R:3 unique_starting_index=80 config_type=initial n_minim_iter=3 stress="0.00032390613511764277 2.1127712345459294e-16 9.361386088587565e-17 2.1127712345459294e-16 0.0003239061351172319 -8.179373896071716e-17 9.361386088587565e-17 -8.179373896071716e-17 -0.0008775246931989795" pbc="T T T"
Si       3.65384828       4.13927231       4.52767367
Si       1.90188062       1.09468991       4.52767367
Si       5.41455015       1.09973260       4.52767367
Si       1.75779010       5.23396200       4.52767367
Si      -0.00291176       2.19442230       4.52767367
Si      -1.75487943       5.23900470       4.52767367
Si       3.65675968       2.11123161       3.65679416
Si      -0.00000036       4.22246300       3.65679416
8
Lattice="7.3030350555337025 -1.6546143360090074e-15 -8.737789338037217e-50 -3.6515175277668495 6.324613882820485 1.968422306107191e-49 -5.831678996597857e-50 7.210354237882571e-48 6.448116412044924" Properties=species:S:1:pos:R:3 unique_starting_index=80 config_type=initial n_minim_iter=4 stress="0.00048005358267021647 1.1572696903816849e-16 1.5315861034816875e-16 1.1572696903816849e-16 0.0004800535826695962 -5.849053678167762e-17 1.5315861034816875e-16 -5.849053678167762e-17 -0.0002410765754078423" pbc="T T T"
Si       3.65435809       4.12999066       4.60154054
Si       1.89917882       1.09977224       4.60154054
Si       5.40101459       1.09485161       4.60154054
Si       1.74949706       5.22976269       4.60154054
Si       0.00284057       2.19462364       4.60154054
Si      -1.75233871       5.22484206       4.60154054
Si       3.65151717       2.10820484       3.71183362
Si      -0.00000036       4.21640946       3.71183362
8
Lattice="7.2768439707167065 -1.6683770757712264e-15 -2.30583644718882e-49 -3.638421985358352 6.301931738016297 1.4403605220076565e-48 -1.7079453331977312e-49 6.168355959255648e-48 6.594737087375014" Properties=species:S:1:pos:R:3 unique_starting_index=80 config_type=initial n_minim_iter=5 stress="-0.0013653232889366703 1.1699192627604074e-16 1.250668542203794e-16 1.1699192627604074e-16 -0.0013653232889367642 -2.2555025759685802e-17 1.250668542203794e-16 -2.2555025759685802e-17 -4.2144749521866496e-05" pbc="T T T"
Si       3.63854967       4.11032186       4.70849917
Si       1.89792563       1.09591614       4.70849917
Si       5.37878958       1.09569437       4.70849917
Si       1.74036759       5.20623779       4.70849917
Si       0.00012768       2.19161030       4.70849917
Si      -1.74049635       5.20601602       4.70849917
Si       3.63842163       2.10064412       3.78925614
Si      -0.00000036       4.20128803       3.78925614
8
Lattice="7.267216914040827 -1.7140708787865447e-15 -4.296090194556398e-49 -3.6336084570204124 6.293594462371313 1.0692740355001715e-48 -3.2704267831900836e-49 5.693759958821559e-48 6.733747922966182" Properties=species:S:1:pos:R:3 unique_starting_index=80 config_type=initial n_minim_iter=6 stress="-0.0013215240848291597 -7.946837353364168e-18 8.399005307763984e-17 -7.946837353364168e-18 -0.0013215240848290443 6.211315496855939e-18 8.399005307763984e-17 6.211315496855939e-18 0.00015935212467795977" pbc="T T T"
Si       3.63295905       4.09733862       4.80985468
Si       1.90233770       1.09756615       4.80985468
Si       5.36552754       1.09869032       4.80985468
Si       1.73191908       5.19490456       4.80985468
Si      -0.00064940       2.19625626       4.80985468
Si      -1.73127076       5.19602873       4.80985468
Si       3.63360810       2.09786503       3.86281571
Si      -0.00000036       4.19572985       3.86281571
8
Lattice="7.271326653786906 -1.7745465243013259e-15 -7.52940968579206e-49 -3.6356633268934515 6.2971536013943625 4.392918416604068e-49 -5.9000417744056274e-49 4.931838031663329e-48 6.810734550358489" Properties=species:S:1:pos:R:3 unique_starting_index=80 config_type=initial n_minim_iter=7 stress="0.0005399179590352396 1.372171973973136e-17 9.706470682022629e-17 1.372171973973136e-17 0.0005399179590358547 -2.390252128751611e-17 9.706470682022629e-17 -2.390252128751611e-17 0.00015268302086911758" pbc="T T T"
Si       3.63536392       4.09197259       4.86586445
Si       1.90989212       1.10233183       4.86586445
Si       5.36173287       1.10284980       4.86586445
Si       1.72606954       5.19430422       4.86586445
Si      -0.00029941       2.20518143       4.86586445
Si      -1.72577121       5.19482219       4.86586445
Si       3.63566297       2.09905141       3.90392234
Si      -0.00000036       4.19810261       3.90392234
8
Lattice="7.265852765843845 -1.8137085383942704e-15 -1.1276297879555403e-48 -3.632926382921921 6.292413075378201 -2.078777978475301e-49 -9.014917938061667e-49 4.087530540599671e-48 6.8202316986528" Properties=species:S:1:pos:R:3 unique_starting_index=80 config_type=initial n_minim_iter=8 stress="-0.00019601115323418189 -1.1147799585250037e-16 1.0345111342197683e-16 -1.1147799585250037e-16 -0.0001960111532339882 -3.1473299604509485e-17 1.0345111342197683e-16 -3.1473299604509485e-17 -8.982585967444363e-06" pbc="T T T"
Si       3.63321333       4.08679787       4.87271004
Si       1.90997496       1.10305673       4.87271004
Si       5.35558978       1.10255910       4.87271004
Si       1.72266339       5.18985439       4.87271004
Si       0.00028695       2.20561562       4.87271004
Si      -1.72295142       5.18935677       4.87271004
Si       3.63292602       2.09747123       3.90918479
Si      -0.00000036       4.19494226       3.90918479
8
Lattice="7.267468618019278 -1.868230763570254e-15 -1.495891698157554e-48 -3.633734309009638 6.293812444410886 -9.227821673801223e-49 -1.2109948408988292e-48 3.222724757810385e-48 6.814683794806486" Properties=species:S:1:pos:R:3 unique_starting_index=80 config_type=initial n_minim_iter=9 stress="6.624156583622814e-06 -8.300851054349122e-17 9.112879599576404e-17 -8.300851054349122e-17 6.624156584010336e-06 -3.026959732638924e-17 9.112879599576404e-17 -3.026959732638924e-17 4.135387684926555e-07" pbc="T T T"
Si       3.63376551       4.08805717       4.86866869
Si       1.91022415       1.10290528       4.86866869
Si       5.35721220       1.10285062       4.86866869
Si       1.72347789       5.19096224       4.86866869
Si       0.00003120       2.20575569       4.86866869
Si      -1.72351016       5.19090758       4.86866869
Si       3.63373395       2.09793769       3.90623784
Si      -0.00000036       4.19587517       3.90623784
