20
Lattice="10.007625435308027 1.98880220292111 2.3296224200964364 -0.4354277610732106 9.507617605385382 0.37339179510032616 -3.0512906808110687 -4.049370055334347 5.310314287494446" Properties=species:S:1:pos:R:3 unique_starting_index=76 config_type=initial n_minim_iter=1 energy=-3251.755412567121 free_energy=-3251.755412567121 pbc="T T T"
Si       7.09351022       2.24670292       5.47229125
Si      -2.44029498      -1.09033928       5.05898235
Si       5.32625418       1.54248725       2.35613073
Si       0.29048363       3.24819221       2.10463025
Si       9.16005505       7.06079122       3.25785183
Si       4.88863226       3.12612452       5.77813185
Si      -0.85418221       6.86572345       4.61916163
Si      -0.87975869       1.56837591       3.59663558
Si       6.97557215       0.71057247       3.65453648
Si       0.04229008      -0.37093233       4.75259437
Si       5.61875097       2.00415701       4.27534437
Si       2.49215438       6.24620037       2.18711974
Si       2.06384570       4.20995083       3.37424711
Si      -0.50720956       3.15355121       5.37081676
Si       1.43972880       5.00992151       0.55177639
Si       0.32077845       5.84679287       2.80168245
Si       4.68317777       2.90615218       1.17004598
Si       4.40409357       3.23716813       3.40935207
Si       1.75316505       4.16531335       5.71769083
Si       0.83733060       6.21175090       6.16124001
20
Lattice="10.015029188467466 1.9439161603293924 2.273597458099842 -0.4708375503294538 9.516033303926486 0.32476947726287314 -3.0631820615657115 -4.069645829149576 5.319323483816476" Properties=species:S:1:pos:R:3 unique_starting_index=76 config_type=initial n_minim_iter=2 stress="0.0018106395487157314 -0.0024578694529251207 0.00011726523732616565 -0.0024578694529251207 0.0011653023264559593 -0.0038400076853651946 0.00011726523732616565 -0.0038400076853651946 -0.0033697801258196843" pbc="T T T"
Si       7.08968186       2.19279688       5.41591852
Si      -2.46280578      -1.10672905       5.05055350
Si       5.32299024       1.50855518       2.31421144
Si       0.27020327       3.23841180       2.07965628
Si       9.14160407       7.02082362       3.17448411
Si       4.86785064       3.08341802       5.71668755
Si      -0.89326138       6.84689422       4.56391329
Si      -0.90163419       1.55226252       3.57486427
Si       6.97763628       0.66996891       3.61427023
Si       0.02696279      -0.39292638       4.73641306
Si       5.61020679       1.95504137       4.22129373
Si       2.47005902       6.22898465       2.14077402
Si       2.04168255       4.19202703       3.33076438
Si      -0.54440462       3.13180577       5.33243540
Si       1.43083225       5.01173165       0.51968375
Si       0.28673200       5.83912877       2.75785965
Si       4.67699935       2.88900488       1.13151496
Si       4.38358256       3.21518392       3.36395681
Si       1.72220792       4.13377383       5.66480147
Si       0.80282794       6.18125625       6.10731990
20
Lattice="9.981572414363379 1.9772376827741942 2.2326505308530513 -0.44617589872703683 9.49302328701981 0.37415295437683044 -3.0989696309268737 -4.042733126028124 5.342648577506935" Properties=species:S:1:pos:R:3 unique_starting_index=76 config_type=initial n_minim_iter=3 stress="0.0025598417070530344 -0.00046131234988867003 -0.0009671559386622739 -0.00046131234988867003 -0.0005940774027553926 0.00033860226310298636 -0.0009671559386622739 0.00033860226310298636 0.00027923793340337743" pbc="T T T"
Si       7.05824135       2.22674080       5.41589705
Si      -2.49580908      -1.08281119       5.08036607
Si       5.29590606       1.52343847       2.28716854
Si       0.26072222       3.23912382       2.10593193
Si       9.11292056       7.04693916       3.16536084
Si       4.82936700       3.11768833       5.72130693
Si      -0.89403653       6.84042162       4.61557695
Si      -0.91970548       1.55847271       3.60029992
Si       6.94347440       0.70716818       3.59826826
Si      -0.00260897      -0.36391052       4.76003063
Si       5.57519570       1.97137038       4.20592027
Si       2.47129354       6.22508322       2.17388039
Si       2.02762027       4.20861251       3.35303002
Si      -0.57833252       3.15033643       5.37275639
Si       1.45046535       5.01479789       0.53816481
Si       0.27733862       5.84350043       2.79512610
Si       4.66282841       2.90287278       1.12092078
Si       4.35110792       3.24667673       3.37344672
Si       1.69446480       4.15527256       5.69804786
Si       0.79379450       6.19302439       6.17226654
20
Lattice="9.895231442621812 1.9987722327560773 2.2432057675761103 -0.4230319320519229 9.505814968753336 0.3695266625985182 -3.07227089506261 -4.0568553314803975 5.339728357569285" Properties=species:S:1:pos:R:3 unique_starting_index=76 config_type=initial n_minim_iter=4 stress="-0.003204716514651417 0.0007856733342594517 -0.0005363142118507069 0.0007856733342594517 -0.0021578344340035488 -0.00044414674910498553 -0.0005363142118507069 -0.00044414674910498553 -0.0013605819045178424" pbc="T T T"
Si       7.00456264       2.23865356       5.42264404
Si      -2.47164571      -1.08940205       5.07630820
Si       5.25105954       1.53072865       2.28897753
Si       0.26404273       3.24230217       2.10585973
Si       9.04322358       7.07508937       3.17052190
Si       4.79833109       3.12844453       5.71976811
Si      -0.86377701       6.84237062       4.60729357
Si      -0.90493062       1.55549121       3.59613794
Si       6.88820546       0.72003371       3.60852881
Si       0.00147597      -0.36420914       4.76107981
Si       5.53064968       1.98194167       4.20988933
Si       2.46482842       6.23640397       2.17916472
Si       2.02055630       4.22009721       3.35347140
Si      -0.56631269       3.15318438       5.36863743
Si       1.45262864       5.02845950       0.53764808
Si       0.28596490       5.85448275       2.79192786
Si       4.62409154       2.92002836       1.12379861
Si       4.31910329       3.26091723       3.37976743
Si       1.69332868       4.16182821       5.69617142
Si       0.81186944       6.19783854       6.17511022
20
Lattice="9.884444442184696 2.012548528884244 2.2707556991151363 -0.4203289082783565 9.559077505868784 0.3751001549883119 -3.057202230298229 -4.076812301213561 5.345015334744032" Properties=species:S:1:pos:R:3 unique_starting_index=76 config_type=initial n_minim_iter=5 stress="-0.0006503519884030652 -0.00021350493779219266 0.0009053899319565913 -0.00021350493779219266 0.002591378044394485 -0.00032035465209440263 0.0009053899319565913 -0.00032035465209440263 0.0034516969757987363" pbc="T T T"
Si       7.00500892       2.25212595       5.45189383
Si      -2.46016364      -1.09098424       5.08356125
Si       5.24625575       1.53776713       2.30380407
Si       0.26496657       3.26034524       2.11504526
Si       9.03365542       7.11899337       3.19915979
Si       4.80436536       3.14845779       5.74098133
Si      -0.84857586       6.87886973       4.61814276
Si      -0.89646955       1.56435292       3.60275648
Si       6.89057786       0.72516349       3.63538150
Si       0.01054109      -0.36171982       4.77467578
Si       5.52796140       1.99725054       4.23364942
Si       2.46862654       6.27180158       2.19934106
Si       2.02452350       4.24867413       3.36969787
Si      -0.55997980       3.17561539       5.38228483
Si       1.45689345       5.06078956       0.54470716
Si       0.28831885       5.89230258       2.80267688
Si       4.61757173       2.94181118       1.13777770
Si       4.31924509       3.28277314       3.40259564
Si       1.70321296       4.18772269       5.71580281
Si       0.83034463       6.23245515       6.20205983
20
Lattice="9.891423218167004 2.0281331655848995 2.26464951739024 -0.4121732967799534 9.565904308380478 0.39555778363880506 -3.060881749149133 -4.069485158033059 5.3044177809972854" Properties=species:S:1:pos:R:3 unique_starting_index=76 config_type=initial n_minim_iter=6 stress="-0.000559665569097118 0.00038052845234894106 4.957182652295356e-05 0.00038052845234894106 0.000994184227394703 0.0008843923837890287 4.957182652295356e-05 0.0008843923837890287 -0.0010853477389450898" pbc="T T T"
Si       7.00973431       2.26709089       5.42430797
Si      -2.46525314      -1.07836951       5.05165402
Si       5.24745341       1.54666150       2.29047265
Si       0.26231908       3.26582237       2.11279101
Si       9.04032536       7.14159357       3.19525480
Si       4.81352037       3.16564215       5.70688837
Si      -0.83545414       6.88707032       4.60325666
Si      -0.89495941       1.57058615       3.58315251
Si       6.90627132       0.73663278       3.62242962
Si       0.01033479      -0.34852002       4.74838983
Si       5.52842595       2.01737041       4.21586658
Si       2.48042166       6.28218289       2.21151043
Si       2.02935533       4.26605039       3.36272892
Si      -0.56637642       3.19288395       5.35765278
Si       1.46978918       5.07314528       0.55346013
Si       0.28774508       5.90882019       2.79968682
Si       4.62102807       2.95502635       1.14216564
Si       4.32619752       3.29696029       3.39669576
Si       1.70990147       4.20384138       5.69140707
Si       0.84800400       6.24557444       6.19047017
20
Lattice="9.904249953745706 2.0002923335604845 2.2747266529000756 -0.41584827088459275 9.483454893264307 0.36732615329491053 -3.063162373640699 -4.05096946482476 5.352971603585333" Properties=species:S:1:pos:R:3 unique_starting_index=76 config_type=initial n_minim_iter=7 stress="0.0005007354991139673 0.0009099881665428098 0.0006509022682952035 0.0009099881665428098 -0.00154341985967783 -0.0005057732999785359 0.0006509022682952035 -0.0005057732999785359 0.0005924189844029395" pbc="T T T"
Si       7.01299056       2.22118856       5.44638733
Si      -2.47258192      -1.07987300       5.09054521
Si       5.25178934       1.52510717       2.30088963
Si       0.25370297       3.23044552       2.11962088
Si       9.04568363       7.07010490       3.18849598
Si       4.82268875       3.11560967       5.72490581
Si      -0.82946721       6.80797724       4.60917749
Si      -0.89637197       1.54335772       3.59856017
Si       6.92536893       0.71512901       3.65218443
Si       0.00877346      -0.36150630       4.78223764
Si       5.53852430       1.98133065       4.23548821
Si       2.48829954       6.22072153       2.21830610
Si       2.02876446       4.22411098       3.37333286
Si      -0.58098733       3.15259610       5.38185576
Si       1.47743333       5.03553118       0.54107196
Si       0.27888924       5.85621538       2.79684920
Si       4.62644799       2.92843312       1.14890972
Si       4.33167811       3.25741071       3.41015531
Si       1.71161302       4.14587672       5.71411769
Si       0.85945019       6.16333632       6.22130946
20
Lattice="9.867776685616935 1.9754168658009434 2.2547358521681855 -0.44312647715378845 9.488380271125155 0.38239516428279885 -3.0584752138532307 -4.036179616034251 5.365652482269459" Properties=species:S:1:pos:R:3 unique_starting_index=76 config_type=initial n_minim_iter=8 stress="-0.0012885689326239324 -0.0005290118357442465 -0.0019260207211696959 -0.0005290118357442465 -0.00029268901630205357 5.3295580726666425e-05 -0.0019260207211696959 5.3295580726666425e-05 6.111524970076022e-07" pbc="T T T"
Si       6.97050633       2.20511869       5.43518577
Si      -2.48083966      -1.06185490       5.10724596
Si       5.22845631       1.51448680       2.29634203
Si       0.23203183       3.23360812       2.12971390
Si       8.99159986       7.05261798       3.17479588
Si       4.78791555       3.10895193       5.71938415
Si      -0.85257679       6.81493750       4.62931513
Si      -0.90832163       1.54953225       3.60750114
Si       6.90173260       0.69953193       3.64439899
Si      -0.00476219      -0.35645812       4.79102913
Si       5.51093111       1.96656038       4.22537718
Si       2.46229489       6.21958853       2.23177028
Si       2.00003527       4.22790778       3.38137021
Si      -0.61258029       3.16577467       5.39705706
Si       1.46204363       5.03961962       0.54590996
Si       0.24897204       5.86566593       2.80636016
Si       4.60381451       2.92037147       1.14933245
Si       4.30237724       3.25125091       3.40833283
Si       1.68022859       4.14603133       5.72317437
Si       0.82970822       6.16581996       6.24476770
20
Lattice="9.855873955258017 1.9586448045702733 2.2851086908133795 -0.4608583489011165 9.482731018721049 0.40203378867327055 -3.0329042363196654 -4.015408712034501 5.3520495512600155" Properties=species:S:1:pos:R:3 unique_starting_index=76 config_type=initial n_minim_iter=9 stress="0.0007344099189676102 -0.0008088960352122729 0.0007145815041975908 -0.0008088960352122729 -0.00019688302690124384 0.0004941416431808558 0.0007145815041975908 0.0004941416431808558 -0.0005358616632041034" pbc="T T T"
Si       6.96787138       2.19499983       5.45509337
Si      -2.46969532      -1.03604570       5.10618825
Si       5.22636582       1.50915935       2.32368153
Si       0.21884389       3.23553292       2.14259106
Si       8.96853399       7.03909746       3.20492008
Si       4.79200540       3.10573444       5.72639422
Si      -0.84009704       6.81381122       4.64552120
Si      -0.90098875       1.55454973       3.60670551
Si       6.90870734       0.69176934       3.67054315
Si       0.00464343      -0.34924824       4.79372964
Si       5.51140293       1.95113197       4.22898447
Si       2.45911808       6.21728818       2.26546812
Si       1.99197192       4.23412380       3.40041970
Si      -0.62223405       3.18197720       5.40365866
Si       1.45844594       5.04507808       0.56337342
Si       0.23516730       5.87462505       2.81435444
Si       4.59513436       2.91679879       1.18140307
Si       4.29890680       3.24757423       3.42523675
Si       1.68438789       4.14274136       5.73344239
Si       0.84372461       6.16261099       6.27317757
20
Lattice="9.832688066165803 1.9907248811043137 2.243851272150192 -0.42640967398410057 9.49178360947343 0.37496607649749725 -3.0659723195353745 -4.048965843229494 5.403312971603064" Properties=species:S:1:pos:R:3 unique_starting_index=76 config_type=initial n_minim_iter=10 stress="0.0011473373135730473 0.0008493733630376789 -0.0009709584474282045 0.0008493733630376789 0.0011791698143968847 -0.0007415081727759035 -0.0009709584474282045 -0.0007415081727759035 -0.0002733367814397031" pbc="T T T"
Si       6.93694025       2.20380990       5.43765715
Si      -2.49829996      -1.05187819       5.15179728
Si       5.21667455       1.52200576       2.31309227
Si       0.21016650       3.23652531       2.14474560
Si       8.96002038       7.07427888       3.14576307
Si       4.76961420       3.10472376       5.70281285
Si      -0.82003208       6.79882986       4.65453248
Si      -0.90892928       1.53909580       3.62055936
Si       6.88898831       0.70312241       3.65354984
Si      -0.02163098      -0.37078283       4.81792580
Si       5.48465502       1.95515519       4.20630718
Si       2.47230965       6.23275069       2.25126184
Si       1.98159131       4.23989798       3.39549540
Si      -0.64828571       3.17263760       5.41896545
Si       1.47593689       5.06475929       0.54834809
Si       0.23746088       5.87976652       2.79781764
Si       4.59185368       2.93846614       1.16990764
Si       4.28972686       3.25404761       3.40604110
Si       1.67134121       4.12496449       5.73130933
Si       0.84491519       6.14673538       6.28403207
20
Lattice="9.743259680784515 1.944628710579674 2.2610806205996523 -0.4555361153126653 9.447466158538314 0.36927128913191365 -3.0271647591350552 -4.024053312371147 5.451865080719793" Properties=species:S:1:pos:R:3 unique_starting_index=76 config_type=initial n_minim_iter=11 stress="-0.0011651796273242305 -0.00034268087846714933 -0.00029610129212785853 -0.00034268087846714933 8.839186254394559e-07 -0.0005168365219944248 -0.00029610129212785853 -0.0005168365219944248 0.0005782187328890535" pbc="T T T"
Si       6.87301762       2.16119593       5.47834206
Si      -2.48598166      -1.02071809       5.21137816
Si       5.17826502       1.48967059       2.33302497
Si       0.17892770       3.22487698       2.16643727
Si       8.85847376       7.01074622       3.14829708
Si       4.71943949       3.05936620       5.71534964
Si      -0.81273208       6.75549386       4.70181880
Si      -0.90552030       1.52798191       3.64920508
Si       6.84467061       0.66265966       3.68114792
Si      -0.02656256      -0.38533432       4.86228515
Si       5.42622031       1.91407727       4.23544943
Si       2.43668604       6.20324900       2.27279222
Si       1.93685232       4.21464219       3.42469097
Si      -0.67724463       3.16536297       5.45778644
Si       1.45185635       5.05079552       0.56008030
Si       0.20616980       5.85668589       2.79829474
Si       4.54490299       2.91132922       1.20266704
Si       4.24341610       3.21858280       3.42072179
Si       1.64394330       4.07246597       5.76173170
Si       0.82858472       6.09934439       6.34052046
20
Lattice="9.724943863626974 1.971161567131087 2.2790089804508025 -0.42744126471859356 9.436520530961554 0.3725077443446585 -3.0269763955233917 -4.027408274046778 5.472657306598727" Properties=species:S:1:pos:R:3 unique_starting_index=76 config_type=initial n_minim_iter=12 stress="-0.0008530014279275687 0.0005975030506641893 0.0005684428850430977 0.0005975030506641893 0.00032352728529677985 -0.0003631176893239398 0.0005684428850430977 -0.0003631176893239398 0.0004179972842546575" pbc="T T T"
Si       6.86611915       2.17580374       5.50299854
Si      -2.49402299      -0.99523651       5.25334167
Si       5.18604943       1.49303670       2.34325323
Si       0.16715982       3.23117210       2.18426953
Si       8.85508949       7.03499281       3.15030306
Si       4.71660885       3.06491897       5.70863665
Si      -0.75944151       6.73427062       4.74133389
Si      -0.89333235       1.52202139       3.66907486
Si       6.84690248       0.67377690       3.70005852
Si      -0.03030301      -0.39634515       4.89155376
Si       5.42379095       1.91300810       4.25826134
Si       2.45627513       6.21878331       2.29217532
Si       1.93053635       4.22213410       3.44753482
Si      -0.68742248       3.17450967       5.47612511
Si       1.46954128       5.06711728       0.57989941
Si       0.21397400       5.86097386       2.79266204
Si       4.54287794       2.92520533       1.23976325
Si       4.24340133       3.22875333       3.42718309
Si       1.65653690       4.04881081       5.77175255
Si       0.86300632       6.08785193       6.38126137
20
Lattice="9.693963879980972 1.9373737839112728 2.279538541851614 -0.4449067588028162 9.336144234907897 0.4012088236204133 -3.0280472173339734 -3.965109991691886 5.524587495726694" Properties=species:S:1:pos:R:3 unique_starting_index=76 config_type=initial n_minim_iter=13 stress="-0.00023398407149188954 -0.00055190251177228 0.00031805703619858965 -0.00055190251177228 -0.0010382884718848748 0.0006657576142806106 0.00031805703619858965 0.0006657576142806106 0.0011825993497134853" pbc="T T T"
Si       6.83676169       2.14488549       5.53421952
Si      -2.53024488      -0.90554713       5.35123998
Si       5.19984115       1.44215565       2.34758786
Si       0.11586192       3.21907141       2.22766904
Si       8.81086827       6.95994115       3.14082726
Si       4.66980853       3.03596132       5.70399618
Si      -0.73318626       6.64927783       4.83781324
Si      -0.89811301       1.51346568       3.72556456
Si       6.85027820       0.64598758       3.71347886
Si      -0.05358357      -0.40002902       4.95863901
Si       5.40343143       1.86293708       4.27665042
Si       2.44146875       6.17757487       2.32912940
Si       1.88011451       4.19024621       3.49274652
Si      -0.74558230       3.17784696       5.52607395
Si       1.46702353       5.03869971       0.62226953
Si       0.17773744       5.81832664       2.80233407
Si       4.52086408       2.89668328       1.28493548
Si       4.22378428       3.18898711       3.44230640
Si       1.62992370       3.97151266       5.80272273
Si       0.86160736       6.02114304       6.47633217
20
Lattice="9.71940363408954 1.9748392366343248 2.3038105053220996 -0.41064369699306363 9.337360970805927 0.4050211319030654 -3.0351549611250412 -3.9746460871905245 5.520146103326856" Properties=species:S:1:pos:R:3 unique_starting_index=76 config_type=initial n_minim_iter=14 stress="0.0009002781723837394 -9.795937230047177e-05 0.0001827121131849353 -9.795937230047177e-05 -0.00023275141310290145 -0.00027438042904066824 0.0001827121131849353 -0.00027438042904066824 -0.001094310025083226" pbc="T T T"
Si       6.86341045       2.16751237       5.54074119
Si      -2.55293695      -0.84865848       5.38866707
Si       5.24940298       1.43547735       2.34195843
Si       0.10305182       3.24029276       2.24453400
Si       8.85348125       7.00592401       3.14642222
Si       4.67311313       3.06884564       5.69058484
Si      -0.66502016       6.62762332       4.85774811
Si      -0.87982774       1.51633055       3.75182624
Si       6.89737067       0.65648452       3.72708514
Si      -0.05504970      -0.40802455       4.99098117
Si       5.44265815       1.86116827       4.27928921
Si       2.46867666       6.21025935       2.33207702
Si       1.88219449       4.20410027       3.49633304
Si      -0.73822164       3.19878895       5.50940652
Si       1.49313587       5.05709404       0.65164843
Si       0.19451570       5.82946976       2.79199304
Si       4.53742924       2.90695365       1.31931871
Si       4.25831588       3.19461703       3.45248198
Si       1.65395314       3.95022113       5.79032611
Si       0.92520474       6.01746225       6.49612303
20
Lattice="9.726780094445667 2.000422639761288 2.3688218104357874 -0.3903822799153548 9.351987377323889 0.4189471156121169 -3.0110331923400127 -3.978240251155915 5.513652572710341" Properties=species:S:1:pos:R:3 unique_starting_index=76 config_type=initial n_minim_iter=15 stress="0.00019012127281240973 0.00046977338770658693 0.00024340053591560983 0.00046977338770658693 -0.0006395532030473493 -0.0006710070616021108 0.00024340053591560983 -0.0006710070616021108 -0.0012738103109957116" pbc="T T T"
Si       6.87656381       2.18628251       5.57765153
Si      -2.55249179      -0.77876243       5.41884003
Si       5.29152627       1.43290414       2.36923268
Si       0.09803840       3.26855546       2.27718422
Si       8.87003807       7.05681229       3.21420722
Si       4.67596620       3.10653018       5.72412489
Si      -0.60465754       6.62251726       4.86979793
Si      -0.85290721       1.52958113       3.78984960
Si       6.94898138       0.65653507       3.77916697
Si      -0.04391741      -0.40083771       5.04576661
Si       5.47965744       1.86742843       4.30524213
Si       2.47626365       6.24252402       2.35293690
Si       1.89040800       4.22400840       3.50199076
Si      -0.70173368       3.22569231       5.50265295
Si       1.51061536       5.07124217       0.68492489
Si       0.21092783       5.84621476       2.81299020
Si       4.54280654       2.89800273       1.35906857
Si       4.29660845       3.18947276       3.49962793
Si       1.68070825       3.95230076       5.81329976
Si       1.00370388       6.02028182       6.53286240
20
Lattice="9.652242639258477 2.011060292708435 2.379340049310761 -0.40030085358985634 9.43560611405819 0.44920183823139864 -2.988585574924773 -3.9935193632632506 5.533378768540335" Properties=species:S:1:pos:R:3 unique_starting_index=76 config_type=initial n_minim_iter=16 stress="-0.00037794961062795964 -2.390679286987666e-06 -0.0005587540389507737 -2.390679286987666e-06 0.0018426107561888723 0.00036568669377811454 -0.0005587540389507737 0.00036568669377811454 0.0015215006404050802" pbc="T T T"
Si       6.81493688       2.21418817       5.60654261
Si      -2.56121947      -0.72353442       5.44119599
Si       5.27194998       1.44666743       2.39150162
Si       0.08277586       3.31774685       2.32868563
Si       8.78248755       7.14740913       3.27089446
Si       4.62541098       3.13800051       5.74954516
Si      -0.60946612       6.69178943       4.88721315
Si      -0.85954430       1.55467032       3.82658182
Si       6.92597884       0.65044792       3.80163788
Si      -0.06703839      -0.38431893       5.10894081
Si       5.43673751       1.87570889       4.30856846
Si       2.42740783       6.30019140       2.37510753
Si       1.86925257       4.27337832       3.49871242
Si      -0.69857222       3.26887724       5.53211121
Si       1.50720484       5.11964728       0.70433733
Si       0.19169839       5.89845744       2.85941246
Si       4.50557793       2.88182370       1.36391604
Si       4.26435673       3.20659816       3.51743123
Si       1.65303085       4.00609712       5.85625810
Si       1.01386040       6.07014470       6.57418387
20
Lattice="9.609444713170825 2.0094168658363025 2.418784717718789 -0.3972754846516034 9.37768821889671 0.4932643969873408 -2.973937362517078 -3.946332862207318 5.578995131762018" Properties=species:S:1:pos:R:3 unique_starting_index=76 config_type=initial n_minim_iter=17 stress="-0.00022188255265992373 -0.0009223339461307453 -0.0004386979154639405 -0.0009223339461307453 0.00040357193514214805 -0.00020846161944729642 -0.0004386979154639405 -0.00020846161944729642 0.0017692990903485422" pbc="T T T"
Si       6.78180101       2.22021945       5.66695758
Si      -2.60092428      -0.59726837       5.53617847
Si       5.30547528       1.41754159       2.43064246
Si       0.03589319       3.33601855       2.41070372
Si       8.72947050       7.15965996       3.33587677
Si       4.59108104       3.12375454       5.75413045
Si      -0.55058897       6.64932568       4.98011668
Si      -0.85746472       1.55600954       3.89616411
Si       6.94997412       0.63839670       3.85257853
Si      -0.09665858      -0.38112163       5.21639633
Si       5.42490362       1.84463560       4.35334137
Si       2.40972593       6.29777074       2.43243902
Si       1.84205522       4.27470139       3.53852851
Si      -0.72927576       3.28880259       5.59186280
Si       1.52390054       5.12403857       0.76282553
Si       0.16754415       5.87833593       2.89575313
Si       4.48327832       2.84432804       1.42752783
Si       4.25514263       3.18187721       3.54016940
Si       1.64759323       3.96483089       5.90528536
Si       1.06518067       6.02949918       6.68159924
20
Lattice="9.69070241179084 2.0623768402853226 2.4708180940350815 -0.36457570535703904 9.363138316048575 0.5745049867356988 -2.984864189421001 -3.903009177521462 5.5090728736246275" Properties=species:S:1:pos:R:3 unique_starting_index=76 config_type=initial n_minim_iter=18 stress="0.00011809062904349342 -0.00047271091498531857 -0.00032333189876880666 -0.00047271091498531857 -0.0011915216979341108 0.0010810545973777355 -0.00032333189876880666 0.0010810545973777355 -0.0007017427951415379" pbc="T T T"
Si       6.85643622       2.30488649       5.69876706
Si      -2.63309944      -0.51087072       5.48395132
Si       5.40286159       1.43349863       2.46697107
Si       0.04805358       3.36973416       2.46512552
Si       8.81393321       7.26433101       3.48585875
Si       4.65670756       3.14845437       5.75001651
Si      -0.50739670       6.70435944       5.00892752
Si      -0.85846764       1.58051022       3.90060397
Si       7.03271625       0.69446109       3.87992187
Si      -0.10947021      -0.34805550       5.23156863
Si       5.49619860       1.89024062       4.40977634
Si       2.43171230       6.32673615       2.47417652
Si       1.90788769       4.30317323       3.54669385
Si      -0.68963015       3.31196875       5.60457661
Si       1.56199877       5.13226274       0.81392529
Si       0.19487246       5.87034061       2.95264907
Si       4.52492093       2.82030867       1.44656109
Si       4.31114390       3.20091372       3.53010968
Si       1.70482783       4.01914454       5.91133508
Si       1.13940983       6.07934263       6.68576193
20
Lattice="9.676804867441499 2.1050422656098235 2.5161318731601496 -0.3352702352617453 9.450123737203734 0.558340458998296 -2.9638530004650367 -3.9576750723017184 5.512813953478142" Properties=species:S:1:pos:R:3 unique_starting_index=76 config_type=initial n_minim_iter=19 stress="0.0010717871563818244 0.0004058130113586729 0.00048132835930474237 0.0004058130113586729 0.0018268420307143173 -0.0007326480989263617 0.00048132835930474237 -0.0007326480989263617 0.0014224392313359597" pbc="T T T"
Si       6.86394667       2.34414697       5.72705447
Si      -2.64112874      -0.47174992       5.49159538
Si       5.43400107       1.43872956       2.47817619
Si       0.05220618       3.41706443       2.48907505
Si       8.81267871       7.40481101       3.56513163
Si       4.66186888       3.16352084       5.75503944
Si      -0.45653619       6.77773903       5.00108948
Si      -0.84842960       1.58705206       3.92053099
Si       7.05252082       0.71254523       3.93437497
Si      -0.11910840      -0.37302455       5.27480221
Si       5.51437430       1.90027859       4.42753815
Si       2.42966238       6.40832921       2.46838245
Si       1.94672048       4.33919352       3.53753251
Si      -0.64307897       3.33230137       5.60184068
Si       1.56563918       5.17983381       0.81881871
Si       0.21451727       5.91119373       2.96630998
Si       4.52604372       2.80172441       1.45440981
Si       4.33739217       3.19990100       3.52752311
Si       1.74123634       4.04881230       5.90084636
Si       1.20450605       6.13417538       6.68283472
20
Lattice="9.668688366049471 2.084024699407946 2.56183087747845 -0.3606171766973937 9.46114034537211 0.5808864482598908 -2.9246222685087773 -3.9385258600687028 5.479271744258942" Properties=species:S:1:pos:R:3 unique_starting_index=76 config_type=initial n_minim_iter=20 stress="6.734748760972852e-05 0.000330166140731374 0.0010182437955812437 0.000330166140731374 0.0006280745491371788 -0.0007450261890169619 0.0010182437955812437 -0.0007450261890169619 -0.00034354104155038807" pbc="T T T"
Si       6.86967155       2.34492108       5.73815847
Si      -2.65303633      -0.40288248       5.47356151
Si       5.46144270       1.40224595       2.48673629
Si       0.03952186       3.44025881       2.50662895
Si       8.78367534       7.45564098       3.67260939
Si       4.66456887       3.13881292       5.75572448
Si      -0.44806790       6.83199478       5.01451286
Si      -0.85376309       1.59765553       3.92762308
Si       7.07332671       0.71169486       3.99167269
Si      -0.12753955      -0.37695469       5.27631720
Si       5.53643642       1.88077716       4.42752074
Si       2.40095557       6.43475505       2.49174627
Si       1.98161869       4.33879694       3.54779294
Si      -0.61591079       3.34902404       5.60306349
Si       1.52823405       5.17610625       0.83687130
Si       0.20353290       5.91606776       3.00845124
Si       4.51856679       2.74195084       1.45715700
Si       4.35816020       3.15013619       3.52557859
Si       1.76885716       4.06862372       5.88055573
Si       1.23153472       6.16681333       6.68247299
20
Lattice="9.646208694834097 2.069067618955302 2.531399439094798 -0.372084261905694 9.387397854537472 0.631382504131535 -2.9467954500221865 -3.8773943261735915 5.508409783273613" Properties=species:S:1:pos:R:3 unique_starting_index=76 config_type=initial n_minim_iter=21 stress="0.0009024410232668075 -5.7752457320304115e-05 -0.00015372784723115563 -5.7752457320304115e-05 -0.0009196012572145469 0.0009125067091741752 -0.00015372784723115563 0.0009125067091741752 0.0013750071460418205" pbc="T T T"
Si       6.83295005       2.33898348       5.73658620
Si      -2.70738721      -0.34642959       5.53125240
Si       5.46026943       1.37290984       2.47292945
Si       0.00687433       3.43359852       2.53795358
Si       8.73838785       7.42790005       3.67349087
Si       4.63065443       3.11690455       5.74272380
Si      -0.45649399       6.79962070       5.09822485
Si      -0.88313235       1.59569617       3.96683303
Si       7.06893175       0.70988028       3.98746337
Si      -0.16843164      -0.35643721       5.30125027
Si       5.51563140       1.85918372       4.41617538
Si       2.38462379       6.40159642       2.53796428
Si       1.96065300       4.32394067       3.57931868
Si      -0.66735928       3.35831104       5.65664805
Si       1.51985593       5.16000369       0.87403497
Si       0.17669241       5.89260852       3.06357642
Si       4.50322665       2.72359610       1.45949415
Si       4.33110695       3.12921126       3.51866037
Si       1.74577283       4.05900010       5.90672359
Si       1.20844989       6.13454065       6.74435750
