22
Lattice="5.939788868273041 -1.6891681302237362 -1.9047741053066924 -4.154072717701187 9.520857839872209 -0.050853989859153154 -4.91403319000254 -1.7127630561591636 11.652515739001505" Properties=species:S:1:pos:R:3 unique_starting_index=18 config_type=initial n_minim_iter=1 energy=-3582.496624708645 free_energy=-3582.496624708645 pbc="T T T"
Si      -1.34271530       7.87083227       1.60805269
Si      -1.29457734       1.34989320       7.09516643
Si      -4.41471036      -1.82389328       9.87398846
Si       0.40183504      -0.73437570       9.37559383
Si      -6.17337745       3.15428834      11.06041908
Si       3.66096525       1.75572764       0.58466055
Si       2.28974770      -0.12945907      -0.20368969
Si      -3.02348473       2.82721707       9.95815125
Si      -1.55572531      -1.98925288       9.27543868
Si      -2.77541426       3.20263906       7.60553546
Si       1.45584565      -0.50860021       3.28966811
Si      -4.40262578       3.54294705       5.53820127
Si      -3.49300987       0.49600755       7.21478296
Si      -2.15946403       5.60976104       1.41577821
Si      -0.19497245       2.50964180       5.32277296
Si       0.54060580       6.25059370      -0.97436481
Si      -0.81248469      -0.07083797       2.75647583
Si       2.58421127      -3.49279907       5.82986035
Si      -0.27270546       2.16605698       1.95883600
Si      -4.81950913       5.51596342       8.62940424
Si      -2.10755821       3.93361645       4.75976184
Si      -3.94196521       0.62186530       9.57856026
22
Lattice="5.924529064992942 -1.6980304654051577 -1.9031782104068484 -4.151770948568471 9.537907460392665 -0.04773540190111009 -4.905499599595442 -1.7096556686054707 11.619271048693813" Properties=species:S:1:pos:R:3 unique_starting_index=18 config_type=initial n_minim_iter=2 stress="-0.00219546644999099 -0.00037836274652698214 -0.00042534253655740505 -0.00037836274652698214 -0.001302272762381552 0.00015260784719386486 -0.00042534253655740505 0.00015260784719386486 -0.002959855462735895" pbc="T T T"
Si      -1.34881535       7.88273593       1.60333463
Si      -1.29931422       1.35346241       7.07223797
Si      -4.40705160      -1.82287296       9.84687174
Si       0.39483760      -0.73661509       9.34598220
Si      -6.16521534       3.16597489      11.03113010
Si       3.64663810       1.75463185       0.57894268
Si       2.28300017      -0.13198057      -0.20449678
Si      -3.02372393       2.83210897       9.92807244
Si      -1.55638100      -1.99018159       9.24694086
Si      -2.77536391       3.21169812       7.58376408
Si       1.45003477      -0.51103179       3.27970524
Si      -4.39607822       3.55227032       5.52429913
Si      -3.48769281       0.50022778       7.19215086
Si      -2.16134350       5.61974116       1.41205326
Si      -0.20130395       2.51248235       5.30599321
Si       0.53259527       6.25884493      -0.97050773
Si      -0.81230435      -0.07020967       2.74725199
Si       2.57551933      -3.50105274       5.80949694
Si      -0.27599772       2.16916819       1.95258623
Si      -4.81675168       5.52846398       8.60572971
Si      -2.10884421       3.94115031       4.74693622
Si      -3.93694853       0.62711209       9.55203324
22
Lattice="5.92361696544941 -1.7140507223605423 -1.9070385076656828 -4.160819733104711 9.596540872471914 -0.0499656984046294 -4.904990377670679 -1.7179562373727952 11.635077075105947" Properties=species:S:1:pos:R:3 unique_starting_index=18 config_type=initial n_minim_iter=3 stress="-0.0002847601650175796 -0.001530649128085729 -0.0009146512668483861 -0.001530649128085729 0.004978544268648216 0.0004146165434176496 -0.0009146512668483861 0.0004146165434176496 0.00032693112171741184" pbc="T T T"
Si      -1.35895096       7.92850911       1.60125639
Si      -1.30835547       1.36116800       7.07612085
Si      -4.40824768      -1.83564999       9.86292725
Si       0.39318961      -0.74652433       9.35786123
Si      -6.16752270       3.18874269      11.04835499
Si       3.64064301       1.76194806       0.57421221
Si       2.28216216      -0.13479726      -0.20463186
Si      -3.02694564       2.84220736       9.93753223
Si      -1.55868783      -2.00332098       9.25794227
Si      -2.77848925       3.23558610       7.59291151
Si       1.45015435      -0.51707686       3.28729726
Si      -4.39729747       3.57482014       5.53209049
Si      -3.48800775       0.50332021       7.19498766
Si      -2.17076595       5.65411735       1.41055831
Si      -0.20678288       2.52304357       5.31097147
Si       0.52535694       6.29562864      -0.97067125
Si      -0.81378104      -0.07098101       2.74771564
Si       2.57525341      -3.52804857       5.81610582
Si      -0.27988203       2.18095646       1.95352398
Si      -4.82307384       5.56239168       8.61571358
Si      -2.11370320       3.96445750       4.75383805
Si      -3.93734650       0.63199151       9.56671114
22
Lattice="5.910056190076043 -1.682965152141135 -1.8899003462228259 -4.130679617343648 9.53820097539244 -0.08873689909051959 -4.875931700498039 -1.7577158253245737 11.649075824876638" Properties=species:S:1:pos:R:3 unique_starting_index=18 config_type=initial n_minim_iter=4 stress="-0.002113958046460561 -0.0004467305811883117 0.0008710641573000183 -0.0004467305811883117 -0.00030060983876899146 -0.0012016958159275003 0.0008710641573000183 -0.0012016958159275003 0.001252636013335584" pbc="T T T"
Si      -1.33359667       7.88344845       1.57365032
Si      -1.30230433       1.33563755       7.06874873
Si      -4.39180082      -1.88122126       9.88306035
Si       0.42069538      -0.77246722       9.38261822
Si      -6.11772060       3.12814597      11.05539744
Si       3.64089104       1.76974912       0.56899169
Si       2.28131313      -0.12480709      -0.19493679
Si      -2.98413715       2.77364618       9.93412911
Si      -1.54479141      -2.02665623       9.27398811
Si      -2.73936218       3.20875013       7.59302447
Si       1.46235712      -0.51929036       3.31272012
Si      -4.36097881       3.52600534       5.52478171
Si      -3.46220306       0.46490761       7.17704481
Si      -2.16004838       5.61878248       1.38616271
Si      -0.18671343       2.48953636       5.31299431
Si       0.54309418       6.27507485      -0.97771921
Si      -0.80907852      -0.08115394       2.74079432
Si       2.57659123      -3.52589951       5.84272874
Si      -0.27039134       2.16375296       1.94884444
Si      -4.77880967       5.49869509       8.60597313
Si      -2.08589038       3.92729294       4.75359831
Si      -3.90165985       0.59070871       9.58105260
22
Lattice="5.936645875413297 -1.676224463296073 -1.896796240645582 -4.133342938255623 9.52551298940114 -0.061678446345807075 -4.918107487096964 -1.73950848267923 11.618254210314351" Properties=species:S:1:pos:R:3 unique_starting_index=18 config_type=initial n_minim_iter=5 stress="0.0002223226210310759 0.0006243796981767075 -0.00016387576516813657 0.0006243796981767075 -5.965992505662907e-05 0.0004870407236072544 -0.00016387576516813657 0.0004870407236072544 -0.000664672528593019" pbc="T T T"
Si      -1.32984723       7.88066552       1.58680072
Si      -1.32009787       1.34984071       7.05031370
Si      -4.43069156      -1.86997038       9.85847368
Si       0.40830392      -0.75169666       9.35401901
Si      -6.15492481       3.14068775      11.04019467
Si       3.65805014       1.77841827       0.56340834
Si       2.29176973      -0.12067516      -0.19700606
Si      -3.00722415       2.78477375       9.91320187
Si      -1.57045510      -2.00779872       9.24371239
Si      -2.75519643       3.22517051       7.58257627
Si       1.46407197      -0.50887193       3.30272490
Si      -4.38069010       3.52795358       5.52385951
Si      -3.48706363       0.47177236       7.15740071
Si      -2.16522435       5.61581517       1.39703801
Si      -0.19166324       2.49784363       5.30292714
Si       0.55862383       6.27091375      -0.96038012
Si      -0.81734001      -0.07598719       2.73141555
Si       2.57274823      -3.50774566       5.81388542
Si      -0.27134529       2.16604734       1.94793011
Si      -4.80403220       5.50571469       8.60117473
Si      -2.09518336       3.93193056       4.75237307
Si      -3.93059854       0.60438843       9.56161947
22
Lattice="5.978591401992592 -1.6971655731928774 -1.900661952179642 -4.202233259145418 9.51754011773433 -0.07338635926343341 -4.951124491431811 -1.7312379537374765 11.620992312514925" Properties=species:S:1:pos:R:3 unique_starting_index=18 config_type=initial n_minim_iter=6 stress="0.002708207573906965 -0.003096964701569207 -0.0008481017217113078 -0.003096964701569207 -0.0021720711031352822 8.299848810456404e-05 -0.0008481017217113078 8.299848810456404e-05 0.0007888013132086523" pbc="T T T"
Si      -1.38145117       7.86258328       1.57004649
Si      -1.35154359       1.34728231       7.04391125
Si      -4.46067111      -1.87691211       9.86836407
Si       0.40136827      -0.77198632       9.35273873
Si      -6.21262184       3.14166472      11.03196249
Si       3.66272948       1.76225437       0.55020350
Si       2.30370830      -0.12697537      -0.19744956
Si      -3.05645585       2.76509500       9.89832755
Si      -1.58424150      -2.00667197       9.24115773
Si      -2.78551903       3.24392320       7.57768119
Si       1.46732142      -0.51671324       3.30253827
Si      -4.42003869       3.52704898       5.52481014
Si      -3.51302804       0.45856797       7.14929678
Si      -2.21319724       5.61274179       1.39193220
Si      -0.21130529       2.47692948       5.29520174
Si       0.53863370       6.24482703      -0.97125616
Si      -0.82445082      -0.07266477       2.72699616
Si       2.59130749      -3.52156442       5.81352453
Si      -0.28755194       2.15595850       1.94424195
Si      -4.87118319       5.49167274       8.59783884
Si      -2.13073499       3.92052115       4.74501822
Si      -3.96018307       0.60071590       9.56299189
22
Lattice="5.965768209974315 -1.66419735135877 -1.8761786185925742 -4.149310613283577 9.547449975135873 -0.1269793733024631 -4.940844720511932 -1.825242577782836 11.583197812552248" Properties=species:S:1:pos:R:3 unique_starting_index=18 config_type=initial n_minim_iter=7 stress="0.004096215936379341 -0.0014165206132925883 0.00013350400153750876 -0.0014165206132925883 0.00016987206316617553 -0.0013428122762933251 0.00013350400153750876 -0.0013428122762933251 0.0009664694236550737" pbc="T T T"
Si      -1.34278368       7.89662692       1.51656022
Si      -1.35212594       1.33420067       7.01047629
Si      -4.46072642      -2.00359488       9.85402739
Si       0.41308468      -0.82815046       9.33448733
Si      -6.16421962       3.06996977      10.95853984
Si       3.66248605       1.81032805       0.53506404
Si       2.30004167      -0.10285058      -0.18737911
Si      -3.04068701       2.69718571       9.82833255
Si      -1.58630996      -2.06128805       9.21129712
Si      -2.72590517       3.28438642       7.53605041
Si       1.46239354      -0.51837727       3.30142070
Si      -4.36876019       3.49155704       5.49454893
Si      -3.48708158       0.36503462       7.10099048
Si      -2.19648282       5.63944270       1.36271372
Si      -0.18628674       2.45167819       5.26376427
Si       0.59065104       6.26867262      -0.99796595
Si      -0.81834941      -0.08048518       2.70922715
Si       2.57086019      -3.55762479       5.81800522
Si      -0.27599124       2.15470042       1.93055631
Si      -4.83347368       5.43948833       8.54900883
Si      -2.09693053       3.90215289       4.70517234
Si      -3.92355572       0.52411708       9.52910972
22
Lattice="5.931466367742332 -1.6562637783359502 -1.8892501829335617 -4.103262887674661 9.548080913327407 -0.09875739251712545 -4.927019801243508 -1.8084070848878915 11.609985068933936" Properties=species:S:1:pos:R:3 unique_starting_index=18 config_type=initial n_minim_iter=8 stress="0.001201121368214888 -0.0008933518098013286 -0.0007195288028701343 -0.0008933518098013286 -0.0009427820652228505 0.0010377389043915064 -0.0007195288028701343 0.0010377389043915064 0.002825830643511283" pbc="T T T"
Si      -1.31990039       7.90968951       1.53902832
Si      -1.35526277       1.36245732       7.03269350
Si      -4.45179864      -2.01180886       9.88291020
Si       0.40197936      -0.80606371       9.35752028
Si      -6.12585595       3.08659387      10.99215960
Si       3.64247188       1.83243161       0.53406197
Si       2.28662896      -0.09158762      -0.18711752
Si      -3.03214761       2.71146447       9.85237527
Si      -1.59087318      -2.03797255       9.22600430
Si      -2.69326093       3.33934210       7.56689689
Si       1.44727524      -0.50171646       3.30907576
Si      -4.33036521       3.49805793       5.52639063
Si      -3.46739792       0.35511735       7.11495194
Si      -2.17888406       5.65201443       1.38524418
Si      -0.18158591       2.46281085       5.28251223
Si       0.61200543       6.26563946      -0.98405180
Si      -0.81563863      -0.06999756       2.71356857
Si       2.53958951      -3.54154504       5.82198217
Si      -0.27195505       2.16084960       1.94414092
Si      -4.80442798       5.45109480       8.59509780
Si      -2.07689685       3.91190270       4.72741020
Si      -3.89992466       0.53434319       9.55884118
22
Lattice="5.909256244467115 -1.6442493661455861 -1.858922394663586 -4.069276714444341 9.58737541148479 -0.13530346323968231 -4.888635260727781 -1.8613474569073065 11.544603449297881" Properties=species:S:1:pos:R:3 unique_starting_index=18 config_type=initial n_minim_iter=9 stress="0.00037048479739437733 0.00018612197487435673 0.001022647571469397 0.00018612197487435673 0.000454491140821818 -0.00030800007596852455 0.001022647571469397 -0.00030800007596852455 -0.0006387380676496691" pbc="T T T"
Si      -1.29357633       7.94649401       1.50460550
Si      -1.33515217       1.36004158       6.99570076
Si      -4.42174816      -2.08051507       9.83184344
Si       0.42363088      -0.83544165       9.31531424
Si      -6.07131452       3.05400354      10.90841105
Si       3.63697715       1.85694853       0.53483740
Si       2.28014703      -0.07751670      -0.17780885
Si      -2.99869270       2.68626820       9.77814459
Si      -1.56504732      -2.07391386       9.17958801
Si      -2.64056273       3.36680578       7.51497571
Si       1.44866579      -0.50469021       3.29888436
Si      -4.28843254       3.48910788       5.48381034
Si      -3.43575583       0.30831506       7.06797685
Si      -2.15878958       5.68038961       1.35708149
Si      -0.15826346       2.45641283       5.24908607
Si       0.63042339       6.29387680      -0.99390729
Si      -0.80796098      -0.07545319       2.69784948
Si       2.53607913      -3.57361066       5.81181719
Si      -0.26067110       2.16621444       1.93299289
Si      -4.76308988       5.44004182       8.53223370
Si      -2.04579104       3.91293484       4.68384241
Si      -3.85662440       0.49268515       9.49896202
22
Lattice="5.896741672854147 -1.6345473009490452 -1.8806344683272296 -4.042480769380583 9.590972818697205 -0.13130138184108578 -4.920135527029364 -1.8845021400929256 11.576170352834428" Properties=species:S:1:pos:R:3 unique_starting_index=18 config_type=initial n_minim_iter=10 stress="-0.0012332975510590469 0.001331464822667484 -0.0012938165025704346 0.001331464822667484 0.0007628986929567186 -0.001274374672720584 -0.0012938165025704346 -0.001274374672720584 -0.0008862492716207966" pbc="T T T"
Si      -1.28148852       7.95095934       1.50344667
Si      -1.35232813       1.35299501       7.01168868
Si      -4.44718476      -2.09874882       9.85623311
Si       0.38497965      -0.84386659       9.31916607
Si      -6.09350152       3.03065631      10.93980299
Si       3.62855158       1.85976622       0.52289878
Si       2.27441098      -0.07082911      -0.18705686
Si      -3.02133248       2.67550800       9.79457528
Si      -1.59231245      -2.09218364       9.19732994
Si      -2.65267136       3.35437348       7.52718558
Si       1.43245237      -0.50686596       3.29666664
Si      -4.29475709       3.47937116       5.50042220
Si      -3.45401404       0.29584759       7.09347114
Si      -2.14432893       5.68221255       1.35566266
Si      -0.17338389       2.45397474       5.25208119
Si       0.63754593       6.30399124      -1.00303238
Si      -0.81867701      -0.08159652       2.70714385
Si       2.50253170      -3.58511623       5.81260935
Si      -0.26232896       2.16695661       1.93663539
Si      -4.77720766       5.43123977       8.55162922
Si      -2.04965583       3.90970982       4.68810004
Si      -3.88147721       0.47258288       9.51701773
22
Lattice="5.8750592666032055 -1.6587785395443093 -1.8716403417059684 -4.048154607468408 9.607605735614174 -0.08967330678059857 -4.8618746968076785 -1.808297202844975 11.557522179962568" Properties=species:S:1:pos:R:3 unique_starting_index=18 config_type=initial n_minim_iter=11 stress="-0.002332994830774206 0.0006969226409882074 0.0009690220084514592 0.0006969226409882074 0.0008736436663498903 0.0007955948838106806 0.0009690220084514592 0.0007955948838106806 -0.0017778487883964827" pbc="T T T"
Si      -1.28279105       7.97123193       1.54962425
Si      -1.32290753       1.40295174       7.03082584
Si      -4.39432909      -2.02810434       9.82658077
Si       0.41442717      -0.78413050       9.31093593
Si      -6.05089040       3.10189987      10.95287750
Si       3.61821624       1.84867837       0.55152828
Si       2.26843215      -0.06906470      -0.18149195
Si      -2.98027422       2.74677294       9.80261381
Si      -1.54022218      -2.04398460       9.18897926
Si      -2.61762443       3.39924996       7.54110770
Si       1.44455512      -0.49114626       3.30186160
Si      -4.27751295       3.52305736       5.50851723
Si      -3.42568806       0.34853364       7.10145654
Si      -2.13238972       5.70124234       1.37060935
Si      -0.16059641       2.49051945       5.26998749
Si       0.60776711       6.30887779      -0.96011651
Si      -0.81476475      -0.06809686       2.71342280
Si       2.52266801      -3.57162260       5.80496868
Si      -0.25556000       2.18368841       1.95708518
Si      -4.75238712       5.50488789       8.57240128
Si      -2.03096714       3.94910832       4.70004103
Si      -3.84182547       0.52977536       9.50266376
22
Lattice="5.893820185496779 -1.6561959323756585 -1.8834333201177829 -4.0604494007906515 9.599543194608895 -0.09317168675037817 -4.899387400783153 -1.8210580555514346 11.574726699354708" Properties=species:S:1:pos:R:3 unique_starting_index=18 config_type=initial n_minim_iter=12 stress="-0.0004387813383716593 0.00015212509854650182 -0.00016484988347807906 0.00015212509854650182 -0.0009107452359141497 -1.4726299832369747e-05 -0.00016484988347807906 -1.4726299832369747e-05 -0.00020022954020444767" pbc="T T T"
Si      -1.29394172       7.96561190       1.54071786
Si      -1.35450438       1.40543936       7.03620879
Si      -4.43115281      -2.05766275       9.84515794
Si       0.39522525      -0.79777153       9.31172295
Si      -6.08897228       3.08200300      10.96963483
Si       3.62085285       1.85145112       0.53616741
Si       2.27444046      -0.05919447      -0.18496362
Si      -3.01487641       2.72225953       9.79696228
Si      -1.56293443      -2.05366063       9.19612006
Si      -2.62253945       3.42007826       7.54551556
Si       1.44213172      -0.49181730       3.30782376
Si      -4.29474894       3.51034249       5.52078121
Si      -3.44875945       0.32197570       7.10551381
Si      -2.14564617       5.70135224       1.36301274
Si      -0.17396957       2.47654963       5.26884729
Si       0.61010545       6.30095262      -0.96396924
Si      -0.82717118      -0.06989814       2.71446550
Si       2.51320343      -3.58683434       5.80566203
Si      -0.26103629       2.17949721       1.96023584
Si      -4.79264882       5.48760120       8.58486531
Si      -2.04328593       3.94024518       4.69800599
Si      -3.86669275       0.50888896       9.51222671
22
Lattice="5.909826700408912 -1.670125941601996 -1.8866107479180556 -4.085843718347893 9.625714363798988 -0.09111795770631365 -4.91218099553967 -1.8157086927000718 11.578294336497354" Properties=species:S:1:pos:R:3 unique_starting_index=18 config_type=initial n_minim_iter=13 stress="0.0018412043999608315 -0.0006955013980229727 0.00011968352395485722 -0.0006955013980229727 0.0021775870649658013 -0.00017353655698258282 0.00011968352395485722 -0.00017353655698258282 0.0010031679269149238" pbc="T T T"
Si      -1.31516796       7.98800110       1.54484575
Si      -1.37080696       1.41460039       7.04053343
Si      -4.44615765      -2.05031155       9.84540683
Si       0.39997432      -0.80284262       9.30915562
Si      -6.11285953       3.09794341      10.97910705
Si       3.62620067       1.85251813       0.53088443
Si       2.27894238      -0.05713702      -0.19003868
Si      -3.03833111       2.73842551       9.79670187
Si      -1.57103075      -2.05249949       9.20187285
Si      -2.62748166       3.43141235       7.54414529
Si       1.44709542      -0.49571276       3.31302878
Si      -4.31210669       3.52346168       5.52484798
Si      -3.46200395       0.32358688       7.11125764
Si      -2.15842447       5.71391588       1.36160811
Si      -0.18346115       2.48292462       5.27199217
Si       0.59654224       6.30814286      -0.96372244
Si      -0.82868311      -0.07014163       2.71795566
Si       2.52691411      -3.60285585       5.80258789
Si      -0.26400769       2.18524961       1.95954368
Si      -4.81602931       5.50289341       8.58925464
Si      -2.05555641       3.95076491       4.69575206
Si      -3.88172515       0.51419297       9.51107017
22
Lattice="5.896621104188454 -1.6647407386497088 -1.8941773643545323 -4.067928849355505 9.610498259705277 -0.07767828205972513 -4.911845025565858 -1.8055737939783736 11.587417202248753" Properties=species:S:1:pos:R:3 unique_starting_index=18 config_type=initial n_minim_iter=14 stress="-9.13881664265854e-05 0.00010817732827914667 8.153930268036017e-05 0.00010817732827914667 -0.00025761659191749723 0.0002013511400881834 8.153930268036017e-05 0.0002013511400881834 2.3223149081955498e-05" pbc="T T T"
Si      -1.30986344       7.98487612       1.55850481
Si      -1.38061659       1.42547981       7.05317831
Si      -4.45133605      -2.04037118       9.84866640
Si       0.39825309      -0.79438372       9.30944953
Si      -6.10615366       3.09614878      10.99923661
Si       3.62156760       1.85869145       0.52595134
Si       2.27315323      -0.04591518      -0.19568391
Si      -3.04385957       2.74695277       9.80269811
Si      -1.57713004      -2.04119220       9.21059526
Si      -2.60965423       3.43952173       7.55136986
Si       1.44338480      -0.49025022       3.32026277
Si      -4.30201537       3.51979451       5.53835988
Si      -3.46152288       0.31798544       7.12310473
Si      -2.14842159       5.70685220       1.36552356
Si      -0.18750047       2.48543449       5.28039474
Si       0.59690521       6.29664061      -0.95515183
Si      -0.82870646      -0.06942616       2.72376976
Si       2.51858820      -3.59749216       5.79778685
Si      -0.26013686       2.18592123       1.96344707
Si      -4.80866577       5.49952971       8.60724197
Si      -2.04882962       3.94783606       4.69922368
Si      -3.88027246       0.51579811       9.51478224
22
Lattice="5.895799129518334 -1.6644536466696664 -1.89543674721433 -4.071401966974874 9.608003347288859 -0.08955749014696698 -4.916484791694004 -1.8198739935684363 11.591472118002038" Properties=species:S:1:pos:R:3 unique_starting_index=18 config_type=initial n_minim_iter=15 stress="-0.0009145904988029437 0.00014596111664014975 -0.0003763444165241857 0.00014596111664014975 -0.0003993159182511519 -0.000535843819897933 -0.0003763444165241857 -0.000535843819897933 -0.0007734163726580576" pbc="T T T"
Si      -1.31735500       7.98267428       1.54731280
Si      -1.38672888       1.40733457       7.05263384
Si      -4.45883503      -2.03901254       9.84801299
Si       0.39717546      -0.81333016       9.31135526
Si      -6.11460829       3.07614630      10.99488431
Si       3.62435856       1.85750647       0.51595130
Si       2.26923318      -0.04555352      -0.19941408
Si      -3.05047135       2.73510456       9.80041613
Si      -1.57947211      -2.05655441       9.21671446
Si      -2.61758600       3.42067858       7.54648491
Si       1.43970251      -0.49909283       3.32233879
Si      -4.30427958       3.51377546       5.53703101
Si      -3.46584539       0.30854475       7.12545417
Si      -2.15840775       5.70385170       1.35833014
Si      -0.19625629       2.47433854       5.27753711
Si       0.59296579       6.29744494      -0.96270231
Si      -0.82648153      -0.07432034       2.72534489
Si       2.52122756      -3.60695440       5.79750814
Si      -0.26095423       2.18089666       1.95430765
Si      -4.81219841       5.48933387       8.60209593
Si      -2.05615737       3.93518398       4.69218035
Si      -3.88690936       0.50755204       9.51386540
22
Lattice="5.8976472655121155 -1.670400961991629 -1.894852014338173 -4.0781168925657285 9.616852152997282 -0.08457096175807394 -4.911880195439622 -1.809880878797432 11.592811977242361" Properties=species:S:1:pos:R:3 unique_starting_index=18 config_type=initial n_minim_iter=16 stress="3.837627461212603e-05 -1.5219657632539414e-05 -6.386126999170661e-05 -1.5219657632539414e-05 0.00023170843747261942 5.430822682409257e-05 -6.386126999170661e-05 5.430822682409257e-05 0.00010785148924033956" pbc="T T T"
Si      -1.32464804       7.99672932       1.55192304
Si      -1.39114771       1.41534567       7.06154605
Si      -4.46043918      -2.02849878       9.84354498
Si       0.40697387      -0.81239369       9.31523229
Si      -6.11461488       3.08105022      10.99778148
Si       3.62929604       1.86304728       0.51250647
Si       2.26633694      -0.03796274      -0.19988941
Si      -3.05338501       2.74649896       9.79799742
Si      -1.57005385      -2.05200961       9.22119953
Si      -2.60594582       3.44635213       7.55141015
Si       1.44057266      -0.49793861       3.33008149
Si      -4.30003088       3.52292121       5.54622037
Si      -3.46441696       0.30257321       7.12818254
Si      -2.16928884       5.71649694       1.35882473
Si      -0.19901140       2.47555181       5.28379735
Si       0.58850948       6.29933918      -0.95400560
Si      -0.82505010      -0.07072037       2.72867463
Si       2.53107886      -3.61504642       5.79586579
Si      -0.25869127       2.18300674       1.95541814
Si      -4.81631117       5.50222934       8.61332371
Si      -2.05672784       3.93735679       4.69051618
Si      -3.88202528       0.51541416       9.51257164
22
Lattice="5.9019141751061825 -1.6716482894876252 -1.8936528699762838 -4.0859162173853125 9.606388243916959 -0.08404038925195298 -4.909115584495948 -1.8020945827859423 11.597078705024076" Properties=species:S:1:pos:R:3 unique_starting_index=18 config_type=initial n_minim_iter=17 stress="0.00047866204972793047 -0.00014090594931126112 0.00035342708251811654 -0.00014090594931126112 -0.0002773484790342328 0.000132046367511237 0.00035342708251811654 0.000132046367511237 0.0002059262482426175" pbc="T T T"
Si      -1.32840864       7.99088061       1.55226945
Si      -1.38890137       1.41062886       7.06674398
Si      -4.45897786      -2.01016610       9.84042955
Si       0.41517371      -0.81027477       9.32086979
Si      -6.11711087       3.07949123      11.00552646
Si       3.63757161       1.85761234       0.51257113
Si       2.26534186      -0.03530043      -0.20004962
Si      -3.05363429       2.75308600       9.80163546
Si      -1.56316837      -2.04705779       9.22817875
Si      -2.60665714       3.44280988       7.55643257
Si       1.44362842      -0.49823155       3.33567431
Si      -4.30355612       3.52205655       5.55181602
Si      -3.46610691       0.30544413       7.13183495
Si      -2.17444018       5.71304891       1.35599248
Si      -0.20011437       2.47309012       5.29060264
Si       0.58149347       6.29147551      -0.95092016
Si      -0.82643153      -0.06831003       2.73369294
Si       2.54368644      -3.61762295       5.79847769
Si      -0.25555540       2.17974007       1.95736102
Si      -4.82027945       5.49678283       8.61802115
Si      -2.05792858       3.93095860       4.69111219
Si      -3.88161440       0.52189912       9.51392697
22
Lattice="5.895894744282148 -1.6665485384912713 -1.893967260008293 -4.075043514540666 9.60898316290675 -0.09106318565642323 -4.909972280947743 -1.817133321097159 11.598723403186257" Properties=species:S:1:pos:R:3 unique_starting_index=18 config_type=initial n_minim_iter=18 stress="-8.421381733102365e-05 3.978199670560691e-05 3.29255887014696e-05 3.978199670560691e-05 5.658864434086152e-05 -2.9683847459296396e-05 3.29255887014696e-05 -2.9683847459296396e-05 -7.2470141366855e-05" pbc="T T T"
Si      -1.32206511       7.99530237       1.54160238
Si      -1.38938934       1.40140427       7.06333013
Si      -4.45998461      -2.02165889       9.84128125
Si       0.41185279      -0.81996760       9.32265791
Si      -6.11186542       3.06712302      11.00363838
Si       3.63829427       1.86170617       0.50735966
Si       2.26121765      -0.03105367      -0.20008178
Si      -3.05428262       2.74558695       9.79636549
Si      -1.56665860      -2.05618375       9.22921704
Si      -2.60485299       3.44380092       7.55485375
Si       1.43906872      -0.49969705       3.33601820
Si      -4.29729039       3.51550601       5.55361490
Si      -3.46484947       0.29199254       7.12818313
Si      -2.17163228       5.71705228       1.35035673
Si      -0.20064176       2.46717709       5.28940861
Si       0.58622433       6.29482475      -0.95601914
Si      -0.82844600      -0.06826394       2.73452967
Si       2.53923211      -3.62709806       5.79996154
Si      -0.25238786       2.17764347       1.95659886
Si      -4.81629684       5.48301344       8.61475597
Si      -2.05449336       3.92382739       4.68750763
Si      -3.87904897       0.51292278       9.51400037
22
Lattice="5.899181396982839 -1.6659182369292431 -1.8984367595932097 -4.077337427874378 9.603716876275628 -0.08964833362138466 -4.919287257052655 -1.817294615578298 11.606207048635264" Properties=species:S:1:pos:R:3 unique_starting_index=18 config_type=initial n_minim_iter=19 stress="9.594824207016376e-05 -5.558846335729441e-05 -0.0002958414645604333 -5.558846335729441e-05 -0.00019538336978492876 5.4732339601481414e-05 -0.0002958414645604333 5.4732339601481414e-05 0.00014187627140608961" pbc="T T T"
Si      -1.32662776       7.99250227       1.54016604
Si      -1.39500620       1.39704503       7.06602362
Si      -4.46916171      -2.01782647       9.84752330
Si       0.40717769      -0.82129859       9.32742496
Si      -6.12225042       3.06667210      11.01172108
Si       3.64141135       1.86072570       0.50431527
Si       2.26132211      -0.02876383      -0.20233604
Si      -3.06254837       2.74479294       9.80019247
Si      -1.57365199      -2.05771475       9.23445657
Si      -2.61244436       3.43993514       7.55775327
Si       1.43625975      -0.50006519       3.33481841
Si      -4.30256836       3.51209675       5.56106199
Si      -3.47084066       0.28697363       7.13184059
Si      -2.17372795       5.71387495       1.35070541
Si      -0.20632103       2.46203880       5.29147263
Si       0.58394060       6.29332192      -0.95523968
Si      -0.83150772      -0.06784855       2.73628822
Si       2.53913097      -3.62656823       5.79911056
Si      -0.25108727       2.17589040       1.95833358
Si      -4.82331637       5.47749804       8.62055373
Si      -2.05903355       3.91711407       4.68984462
Si      -3.88561537       0.51450245       9.51876649
22
Lattice="5.896905717129212 -1.6656656716461595 -1.896428248735917 -4.075244553511711 9.606085859025974 -0.09139458545802713 -4.914871916092562 -1.8190257764650788 11.603579980509778" Properties=species:S:1:pos:R:3 unique_starting_index=18 config_type=initial n_minim_iter=20 stress="2.85809685014422e-05 -2.180114802668143e-05 -7.763740135371348e-05 -2.180114802668143e-05 -5.827405391651015e-05 9.864903615177928e-06 -7.763740135371348e-05 9.864903615177928e-06 2.9758666077899876e-05" pbc="T T T"
Si      -1.32562087       7.99504328       1.53850969
Si      -1.39246393       1.39689589       7.06494700
Si      -4.46541138      -2.01970553       9.84540316
Si       0.40947330      -0.82141931       9.32665484
Si      -6.11748803       3.06690931      11.00858792
Si       3.64112280       1.86161373       0.50557195
Si       2.26079040      -0.02742099      -0.20175608
Si      -3.05870187       2.74518004       9.79740910
Si      -1.57053811      -2.05956734       9.23307627
Si      -2.60907710       3.44094343       7.55544385
Si       1.43649481      -0.50013084       3.33408309
Si      -4.29935221       3.51181593       5.56003644
Si      -3.46783933       0.28477354       7.12949420
Si      -2.17144656       5.71548186       1.34930473
Si      -0.20472199       2.46126956       5.29066455
Si       0.58355913       6.29583281      -0.95469682
Si      -0.83132342      -0.06769746       2.73589540
Si       2.53978409      -3.62845195       5.79918095
Si      -0.24930977       2.17657177       1.95908520
Si      -4.81926577       5.47775190       8.61796528
Si      -2.05652565       3.91694876       4.68849435
Si      -3.88119089       0.51398045       9.51596867
22
Lattice="5.895028148929785 -1.6655412330374806 -1.8950600139326759 -4.073572225255059 9.608062078351217 -0.09261238176791907 -4.911597438568412 -1.8203155243570937 11.601832597455637" Properties=species:S:1:pos:R:3 unique_starting_index=18 config_type=initial n_minim_iter=21 stress="-2.2680656884703817e-05 1.4581326841533662e-05 7.812852718309353e-05 1.4581326841533662e-05 5.755683710488856e-05 -1.4360910330322821e-05 7.812852718309353e-05 -1.4360910330322821e-05 -2.7484254310511045e-05" pbc="T T T"
Si      -1.32551448       7.99740084       1.53698068
Si      -1.39094576       1.39660008       7.06441691
Si      -4.46264800      -2.02105198       9.84400086
Si       0.41107006      -0.82107828       9.32624521
Si      -6.11415250       3.06722166      11.00631589
Si       3.64100059       1.86253619       0.50651076
Si       2.26044696      -0.02579076      -0.20159896
Si      -3.05594106       2.74610592       9.79553612
Si      -1.56815165      -2.06117783       9.23231991
Si      -2.60661357       3.44174875       7.55337333
Si       1.43644415      -0.50041421       3.33335444
Si      -4.29660205       3.51134501       5.56006603
Si      -3.46561613       0.28272371       7.12722349
Si      -2.16956554       5.71687668       1.34854632
Si      -0.20376603       2.45998420       5.29029709
Si       0.58320693       6.29806049      -0.95419944
Si      -0.83146209      -0.06721671       2.73580395
Si       2.54003819      -3.63063032       5.79913704
Si      -0.24753892       2.17735926       1.96010204
Si      -4.81623425       5.47791573       8.61621466
Si      -2.05467981       3.91652026       4.68784534
Si      -3.87767256       0.51397871       9.51375478
