12
Lattice="2.4708991974547634 5.2557062334152326e-14 -3.7355892126059865e-14 -2.2223787829107742e-13 10.448213251002986 1.5895435812689092e-13 2.479159929409994e-13 -5.224106625501636 9.048418099525714" Properties=species:S:1:pos:R:3 unique_starting_index=66 config_type=initial n_minim_iter=18 energy=-1953.7059380907085 free_energy=-1953.7059380907085 pbc="T T T"
Si       1.23084182      -2.61182998       9.04924383
Si       1.23084182       3.91868342       6.78570730
Si       1.23084182      -1.30685342       2.26188506
Si       1.24005738       7.83593662      -0.00082573
Si       1.24005738       1.30542322       2.26271079
Si       1.24005738       6.53096005       6.78653304
Si       1.23653588      -0.00124221       4.52396051
Si       1.23653588      -1.30562079       6.78751363
Si       1.23653588       1.30686301       6.78536206
Si       1.23436331       5.22534885       4.52445759
Si       1.23436331       6.52972743       2.26090447
Si       1.23436331       3.91724363       2.26305604
