6
Lattice="5.439840129874617 -7.764918321659715e-08 -1.1286239755031755e-07 -2.574904657434174 4.791839588688054 1.1286239746220452e-07 -2.5749046574341854 -1.712881842193756 4.475238813560791" Properties=species:S:1:pos:R:3 unique_starting_index=74 config_type=initial n_minim_iter=1 pbc="T T T"
Si      -0.67407326       2.39349021       3.83741213
Si      -2.42744184      -0.53916252       3.83741213
Si      -0.59071714       0.35317679       1.50600111
Si      -3.74245091       2.23752911       4.24489119
Si       1.43423311       2.39486428       0.00275764
Si       2.86317010       1.54053428       2.23486171
6
Lattice="5.442802858915199 0.0063441277888087785 0.0009224488520965092 -2.5707185655889373 4.797452372406549 -0.0009224488520966572 -2.5775457158701953 -1.719418367412775 4.474818724852167" Properties=species:S:1:pos:R:3 unique_starting_index=74 config_type=initial n_minim_iter=2 pbc="T T T"
Si      -0.67088916       2.39728519       3.83658718
Si      -2.42927759      -0.54376365       3.83658718
Si      -0.59034261       0.35295287       1.50579129
Si      -3.74118526       2.23677240       4.24390698
Si       1.43819287       2.40061239       0.00335958
Si       2.86694322       1.54639397       2.23517210
6
Lattice="5.450336474794051 0.026057481944944633 0.0033495031599683326 -2.556919467140247 4.813419732310386 -0.0033495031599683504 -2.585322294258819 -1.7389864596269953 4.472012145337876" Properties=species:S:1:pos:R:3 unique_starting_index=74 config_type=initial n_minim_iter=3 pbc="T T T"
Si      -0.66117251       2.40843436       3.83277723
Si      -2.43449936      -0.55760021       3.83277723
Si      -0.58909724       0.35220829       1.50464549
Si      -3.73646040       2.23394751       4.23973747
Si       1.45004653       2.41774288       0.00521424
Si       2.87763774       1.56421749       2.23521610
6
Lattice="5.453300698747207 0.04839903974100334 0.004432381455487433 -2.5386423549995163 4.8266060509852196 -0.0044323814554871185 -2.592869373811053 -1.7585880288360771 4.463770511484335" Properties=species:S:1:pos:R:3 unique_starting_index=74 config_type=initial n_minim_iter=4 pbc="T T T"
Si      -0.65089581       2.41911038       3.82421509
Si      -2.43903924      -0.57170615       3.82421509
Si      -0.58746401       0.35123182       1.50172359
Si      -3.72859976       2.22924781       4.23140388
Si       1.46203928       2.43468648       0.00735753
Si       2.88624142       1.58318734       2.23206541
6
Lattice="5.460339542748711 0.13435532517874432 0.004913485895879571 -2.466257069128159 4.873493135778942 -0.004913485895878367 -2.6228710395403207 -1.8308153481088099 4.4274198003942" Properties=species:S:1:pos:R:3 unique_starting_index=74 config_type=initial n_minim_iter=5 pbc="T T T"
Si      -0.61348458       2.46036914       3.78736043
Si      -2.45767491      -0.62419041       3.78736043
Si      -0.58159587       0.34772338       1.48938109
Si      -3.69804296       2.21097857       4.19760667
Si       1.50726830       2.49780970       0.01597542
Si       2.91555903       1.65582364       2.21582851
6
Lattice="5.593957880121988 0.4523107257840522 0.01566893736321404 -2.2494240759700377 5.141696323557483 -0.015668937363208874 -2.7773868536507704 -2.1362766069026238 4.384020962176701" Properties=species:S:1:pos:R:3 unique_starting_index=74 config_type=initial n_minim_iter=6 pbc="T T T"
Si      -0.47359739       2.66779944       3.72987249
Si      -2.57418138      -0.84559953       3.72987249
Si      -0.57028716       0.34096216       1.47618491
Si      -3.64980591       2.18213870       4.15231938
Si       1.70266822       2.77882725       0.04748908
Si       3.08097212       1.95476966       2.20050056
6
Lattice="5.484734081738594 0.5371703723853282 -0.03570533316982673 -2.1229728089380213 5.085651030975609 0.035705333169838996 -2.7946715210532194 -2.145499623696291 4.237779758470621" Properties=species:S:1:pos:R:3 unique_starting_index=74 config_type=initial n_minim_iter=7 pbc="T T T"
Si      -0.45544105       2.68383311       3.60703789
Si      -2.57971094      -0.86918246       3.60703789
Si      -0.56719664       0.33911440       1.42938435
Si      -3.58002219       2.14041655       4.04756171
Si       1.71830083       2.78903800       0.05845308
Si       3.02563645       2.00741078       2.10060691
6
Lattice="5.527296455313494 0.5802045650259586 -0.05605266452132919 -2.1052114600381744 5.143513210901859 0.05605266452135314 -2.8451078764701148 -2.1838261357402367 4.245827354415556" Properties=species:S:1:pos:R:3 unique_starting_index=74 config_type=initial n_minim_iter=8 pbc="T T T"
Si      -0.45865382       2.73093281       3.61065416
Si      -2.62272080      -0.88864667       3.61065416
Si      -0.57350952       0.34288874       1.43697557
Si      -3.60465236       2.15514239       4.07107085
Si       1.75377098       2.83631247       0.06674501
Si       3.05049473       2.06102986       2.09232232
