16
Lattice="11.219023484942344 1.104747538220804 1.9694060551289876 3.9898211747286507 8.148365948236124 0.30872912101610556 4.542050110853923 0.6674091876500552 7.939473171557667" Properties=species:S:1:pos:R:3 unique_starting_index=92 config_type=initial n_minim_iter=1 energy=-2616.0965822332255 free_energy=-2616.0965822332255 pbc="T T T"
Si       7.16123382       8.14787090       3.46135437
Si       1.46780754       0.55041727       0.64226048
Si       7.97871495       6.73707986       5.08839031
Si       8.51616526       4.90349358       3.85237392
Si      18.04286841       7.19529339       8.88024577
Si       7.75066577       4.38024052       7.08971029
Si      10.23717496       4.06290079       4.37531695
Si       7.15106044       6.22965966       3.43587370
Si       8.71114637       6.54053155       6.94764843
Si       6.98370582       2.94223405       8.53431970
Si       9.02691092       5.02523583       5.74857563
Si       9.65222146       7.56921006       8.24244861
Si      13.18352119       2.42960056       4.37330760
Si       7.08475167       5.01889445       5.27322238
Si      17.57410233       8.34349882       3.93049768
Si       3.55823890       0.82565684       1.35245639
16
Lattice="11.221725788097059 1.088605639028481 1.9701450760848418 3.9821153625252843 8.141905372561933 0.29505431542716964 4.545415074707003 0.6477801199303153 7.935056478178727" Properties=species:S:1:pos:R:3 unique_starting_index=92 config_type=initial n_minim_iter=2 stress="-0.0007745480302558688 -0.0010732391825765404 -0.0017641097712608191 -0.0010732391825765404 -0.0009673336867294972 -0.001084238064061675 -0.0017641097712608191 -0.001084238064061675 -0.0023730507839863344" pbc="T T T"
Si       7.15594862       8.13246676       3.44698123
Si       1.46756692       0.54744951       0.64121289
Si       7.97572213       6.71762605       5.07623269
Si       8.51406047       4.88649528       3.84384822
Si      18.04337579       7.15795348       8.86738915
Si       7.75025167       4.35710146       7.08110903
Si      10.23787847       4.04272775       4.36877377
Si       7.14710197       6.21381028       3.42464425
Si       8.70957523       6.51771542       6.93479057
Si       6.98538809       2.91843282       8.52573781
Si       9.02603986       5.00444717       5.73924785
Si       9.64962900       7.54187156       8.22749772
Si      13.18540280       2.40672226       4.37115397
Si       7.08324068       5.00060841       5.26310476
Si      17.57131521       8.31573882       3.91894259
Si       3.55881056       0.81876737       1.35111508
16
Lattice="11.235441930995197 1.0830262873079086 1.9915767882944653 3.9835511924401423 8.1448153026295 0.2933053636886627 4.5637820064104195 0.6374659858256776 7.952354931144145" Properties=species:S:1:pos:R:3 unique_starting_index=92 config_type=initial n_minim_iter=3 stress="0.0027700119110988784 -0.0008841483369222777 0.0019165886611948106 -0.0008841483369222777 0.0031588669428847253 -0.0006006321653016781 0.0019165886611948106 -0.0006006321653016781 0.003692357954171257" pbc="T T T"
Si       7.16702572       8.13158303       3.45529749
Si       1.46926930       0.54626966       0.64360282
Si       7.99096086       6.71273637       5.09033433
Si       8.52601482       4.88271527       3.85771624
Si      18.07416803       7.14562470       8.90130743
Si       7.76796716       4.34694373       7.10103824
Si      10.25551051       4.03608896       4.38784217
Si       7.15701074       6.20955870       3.43389604
Si       8.72877945       6.51142533       6.95135180
Si       7.00621366       2.90787393       8.54445233
Si       9.04318899       4.99865064       5.75714065
Si       9.67174089       7.53335628       8.24852519
Si      13.20323178       2.39853344       4.39857809
Si       7.09794346       4.99486665       5.27606040
Si      17.59167232       8.31047665       3.94534492
Si       3.56419543       0.81574306       1.35760661
16
Lattice="11.218118261897484 1.092574335307039 2.0013807590941175 3.986362374184078 8.125753983366563 0.29392923209191746 4.565874638335697 0.6373988904203925 7.943277413466704" Properties=species:S:1:pos:R:3 unique_starting_index=92 config_type=initial n_minim_iter=4 stress="-0.0009073902796632086 0.0009492131955831236 0.0025142832469339524 0.0009492131955831236 -0.004032525834190234 -0.0007388767447729095 0.0025142832469339524 -0.0007388767447729095 0.0007853817273069915" pbc="T T T"
Si       7.17009971       8.11696777       3.45485799
Si       1.46638576       0.54545583       0.64313418
Si       7.99262511       6.69993846       5.08985469
Si       8.51719825       4.87954559       3.85733583
Si      18.06153758       7.14240918       8.90047652
Si       7.76493267       4.33588372       7.10149768
Si      10.25067481       4.03393206       4.39013009
Si       7.15407339       6.19563235       3.43284665
Si       8.73087258       6.50316268       6.94596080
Si       7.00712223       2.90345541       8.53332674
Si       9.03913769       4.99491097       5.75537016
Si       9.67520611       7.51868937       8.24763402
Si      13.18265750       2.40526116       4.40894082
Si       7.09832532       4.98581586       5.27124008
Si      17.57259160       8.30814879       3.95411107
Si       3.55953655       0.81536065       1.35716810
16
Lattice="11.210870394671923 1.0992399488364397 1.976799705628352 3.9855268599188016 8.151967000373793 0.2930265057645953 4.549450927874991 0.6472084136986359 7.9177818321274165" Properties=species:S:1:pos:R:3 unique_starting_index=92 config_type=initial n_minim_iter=5 stress="-0.0005708186019371417 0.001321888998048501 -0.00041690523763378696 0.001321888998048501 0.002354113521424198 -0.00033439054335563105 -0.00041690523763378696 -0.00033439054335563105 -0.0010344773314926" pbc="T T T"
Si       7.16501090       8.14853249       3.44153006
Si       1.46283252       0.54815499       0.63857117
Si       7.98347101       6.72636169       5.07028755
Si       8.50487468       4.90178038       3.83486645
Si      18.04187420       7.17536574       8.84917240
Si       7.74662544       4.35159253       7.08193052
Si      10.24422386       4.05120084       4.36403161
Si       7.14432528       6.21692975       3.41746248
Si       8.71832714       6.53662832       6.92060710
Si       6.98907785       2.92057044       8.50028689
Si       9.02539784       5.01899122       5.72926278
Si       9.65955453       7.54869001       8.22425342
Si      13.16516999       2.41809031       4.38080242
Si       7.08721707       5.00525672       5.24855744
Si      17.55956155       8.34297945       3.91778517
Si       3.55509243       0.81748873       1.34551561
16
Lattice="11.219064268268161 1.0753394423885594 1.9737838196884996 3.970918306890249 8.128697126017912 0.3065391897156755 4.547984132939668 0.6508563314444489 7.922731040051184" Properties=species:S:1:pos:R:3 unique_starting_index=92 config_type=initial n_minim_iter=6 stress="0.0011912557525689098 -0.0015607961780710242 -0.0012388051502186623 -0.0015607961780710242 -0.0016132978318519533 0.0013786768312336645 -0.0012388051502186623 0.0013786768312336645 0.001444791510451284" pbc="T T T"
Si       7.15434642       8.12294499       3.45523557
Si       1.46062525       0.54691107       0.63826682
Si       7.97448897       6.70461236       5.08111173
Si       8.49985620       4.88176737       3.83918120
Si      18.04232103       7.13762782       8.85594665
Si       7.73813021       4.33584691       7.09718985
Si      10.24738092       4.02860674       4.36840990
Si       7.13289825       6.19873201       3.42850351
Si       8.71097907       6.52387261       6.93451415
Si       6.98462653       2.91422270       8.50486073
Si       9.01892699       5.00177074       5.73862646
Si       9.64988083       7.52586741       8.24662508
Si      13.16666747       2.39073255       4.38528285
Si       7.07987526       4.98839333       5.25586320
Si      17.55662094       8.29808325       3.92585786
Si       3.55397029       0.80856498       1.34390294
16
Lattice="11.20226119060278 1.0910266778472992 2.004706815816276 3.9733400030057986 8.15628265330415 0.3129811220896881 4.56619464319516 0.6523311796520707 7.9093910817194955" Properties=species:S:1:pos:R:3 unique_starting_index=92 config_type=initial n_minim_iter=7 stress="-0.00041599749884073265 -0.0010967274721161407 0.0008834332284281545 -0.0010967274721161407 0.00035778778515450335 0.00023842176824547505 0.0008834332284281545 0.00023842176824547505 -0.002004642270295539" pbc="T T T"
Si       7.16627852       8.14886299       3.45864197
Si       1.45400409       0.55771082       0.63882048
Si       7.98516827       6.72799601       5.07838682
Si       8.50225995       4.90434233       3.84427681
Si      18.05186478       7.17019771       8.87266137
Si       7.74587489       4.34672573       7.10667626
Si      10.25415643       4.05010357       4.38299354
Si       7.12950397       6.23224113       3.43914679
Si       8.73003607       6.56031553       6.93523945
Si       7.00287365       2.92060281       8.48674662
Si       9.01966982       5.02704719       5.74853357
Si       9.67275511       7.54395381       8.26344085
Si      13.14799360       2.40488074       4.42146801
Si       7.08661531       5.00099821       5.25242631
Si      17.54253605       8.34693297       3.96689934
Si       3.54184538       0.81080859       1.34764755
16
Lattice="11.20157543295765 1.1169927910884137 1.9977104694899421 3.994335431842598 8.161588500397983 0.2953491746789453 4.559934581743291 0.6497433035529467 7.925517110738549" Properties=species:S:1:pos:R:3 unique_starting_index=92 config_type=initial n_minim_iter=8 stress="0.00037591222592738477 0.0011458014278901115 -0.0008301079995667606 0.0011458014278901115 -0.0009812715458317209 -0.0014038468020927482 -0.0008301079995667606 -0.0014038468020927482 0.0013336827596328509" pbc="T T T"
Si       7.18730335       8.15866015       3.44609776
Si       1.45067027       0.56409005       0.63732664
Si       7.99883050       6.73362946       5.07028309
Si       8.51379701       4.91855344       3.83395387
Si      18.06679695       7.19544923       8.86394960
Si       7.74774826       4.35173704       7.11561242
Si      10.26274218       4.06920164       4.37689830
Si       7.13751412       6.24277893       3.43065625
Si       8.74626997       6.57551118       6.93617434
Si       7.00244823       2.91935116       8.49294075
Si       9.02178984       5.04089188       5.74927448
Si       9.68573717       7.54412281       8.27235998
Si      13.14523235       2.42581598       4.42128550
Si       7.09204967       5.00493419       5.24725415
Si      17.55817434       8.38472438       3.94577629
Si       3.53563281       0.81625976       1.34478324
16
Lattice="11.17912278315915 1.106638613815115 2.012990291286777 3.9758770969255828 8.166803757453184 0.3116427131763484 4.561641635488915 0.6551661508609538 7.91905823367288" Properties=species:S:1:pos:R:3 unique_starting_index=92 config_type=initial n_minim_iter=9 stress="-0.004134471861854085 -0.0006991749092878473 0.0009637709222442996 -0.0006991749092878473 0.0008439579625137178 0.00037205760431131374 0.0009637709222442996 0.00037205760431131374 0.0014254875383607915" pbc="T T T"
Si       7.17489376       8.17094870       3.46137810
Si       1.43895663       0.57048141       0.63830176
Si       7.98253231       6.72836414       5.08011637
Si       8.50469826       4.92198491       3.84202741
Si      18.04895834       7.18861089       8.88124627
Si       7.73672757       4.35749891       7.12662482
Si      10.24559453       4.07287097       4.38821409
Si       7.11093597       6.24227990       3.44321128
Si       8.74097346       6.59658457       6.94711392
Si       6.99817812       2.92019877       8.48121404
Si       8.99129018       5.04879866       5.76486550
Si       9.67308113       7.54165979       8.30298292
Si      13.11516239       2.40611546       4.44385215
Si       7.07491696       5.00642845       5.24375348
Si      17.51435919       8.38191764       3.97569513
Si       3.51501421       0.81215091       1.34628655
16
Lattice="11.25779710936846 1.11933314839116 1.9975943958647697 4.0131608989886285 8.167345779018575 0.308441949523793 4.5896990552704615 0.6606219757514146 7.879846270280583" Properties=species:S:1:pos:R:3 unique_starting_index=92 config_type=initial n_minim_iter=10 stress="0.0016581089750107576 0.0008857021716898716 0.0002634320730188097 0.0008857021716898716 0.00014060203285568766 0.0009700040073552685 0.0002634320730188097 0.0009700040073552685 -0.000539692996113227" pbc="T T T"
Si       7.24017171       8.17756568       3.44165354
Si       1.44057305       0.57601075       0.63431064
Si       8.04496840       6.72595475       5.05075009
Si       8.57762932       4.93410064       3.81712905
Si      18.19374541       7.20376598       8.82697457
Si       7.79353673       4.36500751       7.09501110
Si      10.32067358       4.08994513       4.36078706
Si       7.15987798       6.24497265       3.42359798
Si       8.81555855       6.61514733       6.90843370
Si       7.04690757       2.92407745       8.42810768
Si       9.04411846       5.06339338       5.73777496
Si       9.75083320       7.54347496       8.28081837
Si      13.20116029       2.41029547       4.42191131
Si       7.12136022       5.00986200       5.20395285
Si      17.64338811       8.40186158       3.94815851
Si       3.52854234       0.81387401       1.33540577
16
Lattice="11.254272047083369 1.1353875061095338 1.9806159390677587 4.02610933847131 8.183120676233242 0.2824516486324939 4.578917197854012 0.6492126695699423 7.876530615069052" Properties=species:S:1:pos:R:3 unique_starting_index=92 config_type=initial n_minim_iter=11 stress="-0.001494490179845858 0.000751147345846808 -0.0016182107581100425 0.000751147345846808 0.0012506164428835518 0.0011678219546540846 -0.0016182107581100425 0.0011678219546540846 0.00285509883588639" pbc="T T T"
Si       7.26205019       8.17865346       3.41443834
Si       1.42173105       0.58186832       0.63063310
Si       8.05290447       6.72257411       5.02549618
Si       8.59697515       4.96082446       3.79421565
Si      18.22640053       7.22616418       8.78449509
Si       7.79986919       4.36017966       7.08858183
Si      10.31499969       4.11860390       4.33586478
Si       7.15811380       6.25134268       3.39765854
Si       8.83106850       6.64276121       6.88418232
Si       7.03973709       2.91547879       8.39637641
Si       9.01429663       5.08117673       5.71979312
Si       9.75863595       7.53759663       8.29073286
Si      13.18260291       2.40760988       4.41133902
Si       7.10708179       5.00691128       5.15305458
Si      17.64460375       8.43545959       3.90831488
Si       3.50797365       0.81402273       1.32411625
16
Lattice="11.321018238171652 1.1616280348331025 2.024804198619706 4.065114349001757 8.186841196162211 0.30888430595205313 4.6383316338373834 0.6682316995170201 7.868368782057337" Properties=species:S:1:pos:R:3 unique_starting_index=92 config_type=initial n_minim_iter=12 stress="0.0012959427115310695 0.0011100527857236635 0.0010699782251730873 0.0011100527857236635 0.0011542994902388499 0.002539798868261127 0.0010699782251730873 0.002539798868261127 0.0012234112181278068" pbc="T T T"
Si       7.33573406       8.18373467       3.44418783
Si       1.42502095       0.58667205       0.63602410
Si       8.12998195       6.73925925       5.05010994
Si       8.67510033       4.99182749       3.82504960
Si      18.38764547       7.27381236       8.83692597
Si       7.88819120       4.37864630       7.10616023
Si      10.38828282       4.15280745       4.36962065
Si       7.22495178       6.26234027       3.42462108
Si       8.93240136       6.67802710       6.91225422
Si       7.11715579       2.93952159       8.39234391
Si       9.08315201       5.10664660       5.74523697
Si       9.85888126       7.55824136       8.32029465
Si      13.26850540       2.43324437       4.46123522
Si       7.16666368       5.02377561       5.15692393
Si      17.76422641       8.47136064       3.98392737
Si       3.52663311       0.82095840       1.33555742
16
Lattice="11.358647607971196 1.1654369550033457 2.06540961912301 4.082118694548542 8.184426242902411 0.311729208978459 4.677141455749942 0.6599424641324927 7.903705043470758" Properties=species:S:1:pos:R:3 unique_starting_index=92 config_type=initial n_minim_iter=13 stress="-0.00029835982389815125 -0.0009624219275393734 -0.0007442688657645299 -0.0009624219275393734 0.0013151710675813517 -0.0009930596287120702 -0.0007442688657645299 -0.0009930596287120702 -0.0005098093272890989" pbc="T T T"
Si       7.36447129       8.16739149       3.45827262
Si       1.43018575       0.58690244       0.64699179
Si       8.16090788       6.73740035       5.07562746
Si       8.72297528       5.00733418       3.85363016
Si      18.49461623       7.27036389       8.89672794
Si       7.94671302       4.36105355       7.15195190
Si      10.41969869       4.16137522       4.40951097
Si       7.27730555       6.24410334       3.46049551
Si       8.99069056       6.67057920       6.95503871
Si       7.15724481       2.93070454       8.43364288
Si       9.12195757       5.10394164       5.78198926
Si       9.91200723       7.55433609       8.36181830
Si      13.32106177       2.43071420       4.51815153
Si       7.19356771       5.02601465       5.17879150
Si      17.82606868       8.46652497       4.04649340
Si       3.54207218       0.81800552       1.35246364
16
Lattice="11.40533658285502 1.1733500174628162 2.099501636971682 4.102267184930341 8.183942854582506 0.3298930727468693 4.719224065598513 0.6680941291246787 7.9072016586859855" Properties=species:S:1:pos:R:3 unique_starting_index=92 config_type=initial n_minim_iter=14 stress="0.00036934537446814294 -0.0015441076772453296 -0.0013449851385820065 -0.0015441076772453296 -0.000937545199270149 -0.0022637265273270243 -0.0013449851385820065 -0.0022637265273270243 -0.0012902262547130955" pbc="T T T"
Si       7.39942624       8.15901842       3.47160774
Si       1.43660245       0.59311666       0.66177018
Si       8.20783070       6.75060764       5.10614433
Si       8.78829023       5.02642140       3.87654674
Si      18.62575906       7.27839113       8.92811527
Si       8.00528751       4.35877201       7.18491479
Si      10.46674072       4.17885036       4.43852233
Si       7.31609504       6.23789185       3.48475287
Si       9.06440446       6.68678507       6.98076049
Si       7.20214813       2.93256270       8.44401564
Si       9.15729730       5.12217134       5.80027936
Si       9.97581460       7.56419502       8.39388789
Si      13.37714135       2.43470762       4.56288316
Si       7.22916395       5.03394867       5.18484656
Si      17.89871813       8.47651461       4.10500447
Si       3.55226370       0.81784677       1.36046594
16
Lattice="11.489690777116286 1.193994189117395 2.180396644151244 4.141780010362686 8.198953141864285 0.3653713661418552 4.807518355642687 0.6820459084847595 7.924056445368806" Properties=species:S:1:pos:R:3 unique_starting_index=92 config_type=initial n_minim_iter=15 stress="0.0014345200249508562 -0.0001591696123527806 -0.0011573567421506183 -0.0001591696123527806 -0.0027201819024636293 -0.00035809926719984847 -0.0011573567421506183 -0.00035809926719984847 0.0007300132283196896" pbc="T T T"
Si       7.47795247       8.16123432       3.51310562
Si       1.44200963       0.60412854       0.69059318
Si       8.29675118       6.77979416       5.16005065
Si       8.91475185       5.07451344       3.92582225
Si      18.88377039       7.30768755       9.01656911
Si       8.12237572       4.36312594       7.26346075
Si      10.56686240       4.22082608       4.50766690
Si       7.39084589       6.24104040       3.55338720
Si       9.22394257       6.73883171       7.04189030
Si       7.29827496       2.93885288       8.47046193
Si       9.21732798       5.17286219       5.85480253
Si      10.11121684       7.59173484       8.48425261
Si      13.47542567       2.44584524       4.67164081
Si       7.30461341       5.05142127       5.19038015
Si      18.02614202       8.51625846       4.22822743
Si       3.56252147       0.81930605       1.37545302
16
Lattice="11.551571259788773 1.1907275535723105 2.251753782963888 4.156795660354164 8.205233230772027 0.3993437925703262 4.878742761372797 0.6884002702557389 7.944028920621515" Properties=species:S:1:pos:R:3 unique_starting_index=92 config_type=initial n_minim_iter=16 stress="0.0021110315506119156 -0.0010634666054227873 0.0008328542259304014 -0.0010634666054227873 -0.003739804896930518 0.002232642946476529 0.0008328542259304014 0.002232642946476529 9.198795991233789e-05" pbc="T T T"
Si       7.51329469       8.15121220       3.55050319
Si       1.44916401       0.60325761       0.71661675
Si       8.35373408       6.80373650       5.21314520
Si       9.00072392       5.09700152       3.97274812
Si      19.06723842       7.30080020       9.10867671
Si       8.20669253       4.36025902       7.32990785
Si      10.64067377       4.23234397       4.57471493
Si       7.43913127       6.23016381       3.62075190
Si       9.33609319       6.75936973       7.09935780
Si       7.37210412       2.93936144       8.50857264
Si       9.26084961       5.19695815       5.90905147
Si      10.20200669       7.60669260       8.55660633
Si      13.55189559       2.43838893       4.76574711
Si       7.36047832       5.05467228       5.20598468
Si      18.10654630       8.52080006       4.33914736
Si       3.57315946       0.81640361       1.39063075
16
Lattice="11.530125293380467 1.1504123276438087 2.3016920802176895 4.118945225943076 8.207227725424293 0.4114236381819324 4.895625316184227 0.6689634414794589 7.996956235709868" Properties=species:S:1:pos:R:3 unique_starting_index=92 config_type=initial n_minim_iter=17 stress="0.0021049101882218003 -0.0006602605076774324 0.0016033299336887833 -0.0006602605076774324 -0.003576567992343383 -0.0004945524039790295 0.0016033299336887833 -0.0004945524039790295 0.003897652470206451" pbc="T T T"
Si       7.44650158       8.12758298       3.58053734
Si       1.46029928       0.58184951       0.74671328
Si       8.32537904       6.82491331       5.25510169
Si       8.98808186       5.07110822       4.01701610
Si      19.03850185       7.22033677       9.21298193
Si       8.19364645       4.33671204       7.39316000
Si      10.63463720       4.18731784       4.64067172
Si       7.40927341       6.20716538       3.68668507
Si       9.33238602       6.71977759       7.15056940
Si       7.37370424       2.91862202       8.59895410
Si       9.23536836       5.18151180       5.95858987
Si      10.17323340       7.60288302       8.60357416
Si      13.53523975       2.40804547       4.83227172
Si       7.37082295       5.03439859       5.25025797
Si      18.02942727       8.47278433       4.39752739
Si       3.57093675       0.80948398       1.40254529
16
Lattice="11.516841330978927 1.1758249933316558 2.2909258220213204 4.128753196519866 8.229594365418473 0.41954886207221637 4.8845517629177335 0.6901405973623395 7.982731058001875" Properties=species:S:1:pos:R:3 unique_starting_index=92 config_type=initial n_minim_iter=18 stress="-0.00013500099186163642 0.00047130947902727043 0.0005977528577427636 0.00047130947902727043 -0.001253638059837134 0.00045545764065891984 0.0005977528577427636 0.00045545764065891984 0.002075331361409141" pbc="T T T"
Si       7.44120192       8.15682968       3.57685078
Si       1.44431073       0.59043884       0.73589169
Si       8.33129626       6.84769240       5.25082774
Si       8.98770191       5.10314614       4.00586821
Si      19.01892339       7.28833105       9.20039716
Si       8.18997436       4.36713013       7.37711924
Si      10.62733076       4.22201137       4.63523728
Si       7.40900408       6.23523213       3.68996563
Si       9.32958228       6.76040994       7.13923252
Si       7.37040824       2.95875168       8.58544046
Si       9.22861691       5.21985043       5.95372270
Si      10.16661823       7.64100724       8.59685734
Si      13.52454588       2.43936902       4.82292991
Si       7.36392055       5.05954975       5.24136660
Si      18.02802623       8.52425222       4.39696332
Si       3.55974742       0.81865029       1.39843958
16
Lattice="11.510381463798586 1.16654322728318 2.2799507051578605 4.120040166493909 8.225599883405792 0.4182140957906535 4.877392735855034 0.6879293154036504 7.962464937095383" Properties=species:S:1:pos:R:3 unique_starting_index=92 config_type=initial n_minim_iter=19 stress="-0.0012059837493942033 -0.0009220965033363509 0.0005729919032807666 -0.0009220965033363509 0.00033764084608920163 -0.0008624909707037084 0.0005729919032807666 -0.0008624909707037084 -0.0009923731158303429" pbc="T T T"
Si       7.42633209       8.14770356       3.57787571
Si       1.43580352       0.59690595       0.72784791
Si       8.32721271       6.83630957       5.23838503
Si       8.97975824       5.09530261       3.99012332
Si      18.99373760       7.28383085       9.17165127
Si       8.17992498       4.36239592       7.34446462
Si      10.61726217       4.21384379       4.62620527
Si       7.40206687       6.23000683       3.68410512
Si       9.30645117       6.75114525       7.11606806
Si       7.36463157       2.96367510       8.56916947
Si       9.22773043       5.20836033       5.93240301
Si      10.14872441       7.63316540       8.56865063
Si      13.51715621       2.42994147       4.80286312
Si       7.35313616       5.04833724       5.24273252
Si      18.01022109       8.50409430       4.37238559
Si       3.55674959       0.81545089       1.39153952
16
Lattice="11.531316323400699 1.1568038110021144 2.302160027337179 4.119758096678061 8.214058746251023 0.4318919624465708 4.899718779074995 0.6889663453747721 7.969215837203858" Properties=species:S:1:pos:R:3 unique_starting_index=92 config_type=initial n_minim_iter=20 stress="-0.0005460368035682264 -0.0006927285186429787 0.0013391794432636038 -0.0006927285186429787 0.0012082078787728255 0.0008669241583319695 0.0013391794432636038 0.0008669241583319695 -0.0018523788894241617" pbc="T T T"
Si       7.41896851       8.12261245       3.59627050
Si       1.42978793       0.60710965       0.73353392
Si       8.35643328       6.83203358       5.25558616
Si       9.00964405       5.09203238       4.00280593
Si      19.04150709       7.26626957       9.20453481
Si       8.20302597       4.35320302       7.35409311
Si      10.64354728       4.20653694       4.65827584
Si       7.41387256       6.20534492       3.72027761
Si       9.33562928       6.74740047       7.13348007
Si       7.38950831       2.96844080       8.59240421
Si       9.24892721       5.19951060       5.93985850
Si      10.17167875       7.62774838       8.59262389
Si      13.54137685       2.41730712       4.82991156
Si       7.37475204       5.03089633       5.26245919
Si      18.03075839       8.48530804       4.40231098
Si       3.55651461       0.80734082       1.39304786
16
Lattice="11.52774917371085 1.1381593265376182 2.295799911400033 4.105456696294285 8.18753887472394 0.4428737428663873 4.891964786879939 0.6932594924975058 7.970793842963245" Properties=species:S:1:pos:R:3 unique_starting_index=92 config_type=initial n_minim_iter=21 stress="-0.00022398694048384195 -0.00040450035944551314 0.00029687670128114796 -0.00040450035944551314 0.0005610798880300151 0.0006872062783292998 0.00029687670128114796 0.0006872062783292998 0.0010599231306750586" pbc="T T T"
Si       7.37262830       8.08552701       3.60740810
Si       1.41658354       0.62124953       0.73334488
Si       8.36547286       6.81785567       5.26054685
Si       9.00614111       5.07121024       3.99321498
Si      19.01297964       7.23773122       9.20601837
Si       8.18499489       4.34223982       7.33882215
Si      10.64416523       4.18541149       4.67639459
Si       7.39266497       6.17008876       3.74557881
Si       9.31952078       6.72833377       7.13460965
Si       7.37995781       2.97904147       8.61675904
Si       9.25275275       5.17949031       5.93623729
Si      10.14578920       7.61482151       8.59569566
Si      13.53061973       2.39792181       4.82351328
Si       7.38113118       4.98810772       5.29117863
Si      18.00602881       8.45082143       4.38847724
Si       3.54733442       0.79156310       1.38723238
