14
Lattice="7.765915472851594 -0.5118899910001357 0.9472969404149538 2.678419577925558 7.13433304503518 -0.6211787600634623 1.9799518332003807 0.6750362282335777 7.0795222692074375" Properties=species:S:1:pos:R:3 unique_starting_index=86 config_type=initial n_minim_iter=1 energy=-2279.484923046355 free_energy=-2279.484923046355 pbc="T T T"
Si       7.65074625       3.88738984       5.69388735
Si       8.64970295       1.11060826       4.28940577
Si       5.82810450       3.34386386       2.40296950
Si       9.15135379       3.41555305       3.96039328
Si       5.65683865       4.52023053       6.77337442
Si       3.93277852       1.61005657      -0.73987453
Si       3.74351461       4.73200965       1.87360797
Si       9.33747793       0.84772210       6.58949323
Si       5.95922381       1.91286405       0.42137837
Si       6.46832283       5.80726046       5.23241816
Si       3.71364040       0.85010259       6.64278400
Si       7.34496055       4.63722728       3.45376885
Si       6.80286938       2.41295423       4.26715879
Si       3.69167100       7.03356238       1.16075290
14
Lattice="7.766888592105984 -0.5125955287637256 0.9458062481911834 2.6780461270630562 7.136721479308957 -0.6184112328531465 1.9789920333596358 0.6782655287510001 7.079526331242075" Properties=species:S:1:pos:R:3 unique_starting_index=86 config_type=initial n_minim_iter=2 stress="0.0001485002256172666 -5.87407655695894e-05 2.8810640080025583e-05 -5.87407655695894e-05 0.00019987737868390766 1.1211295381699584e-05 2.8810640080025583e-05 1.1211295381699584e-05 0.0002536644868571694" pbc="T T T"
Si       7.65047948       3.89052091       5.69443448
Si       8.65017167       1.11198082       4.28862442
Si       5.82798132       3.34577606       2.40348487
Si       9.15151086       3.41769909       3.96046356
Si       5.65590093       4.52451184       6.77443577
Si       3.93330005       1.60995275      -0.73965128
Si       3.74312306       4.73442568       1.87512536
Si       9.33762712       0.84986528       6.58829856
Si       5.95972013       1.91319234       0.42119714
Si       6.46776408       5.81127430       5.23397731
Si       3.71287901       0.85305930       6.64267670
Si       7.34478166       4.63972907       3.45464586
Si       6.80281234       2.41510344       4.26710437
Si       3.69132077       7.03659280       1.16328244
14
Lattice="7.765629676709806 -0.512168178828937 0.9443332569820876 2.677903410222721 7.136146505460669 -0.6169270651429978 1.977803470340448 0.6798524877865817 7.076792699655775" Properties=species:S:1:pos:R:3 unique_starting_index=86 config_type=initial n_minim_iter=3 stress="-8.801582600243127e-05 -3.7781882477881205e-05 -3.6326893463440864e-05 -3.7781882477881205e-05 -2.1792797721534453e-05 0.00016076323717304948 -3.6326893463440864e-05 0.00016076323717304948 -0.00021412189934408708" pbc="T T T"
Si       7.64878934       3.89149393       5.69219099
Si       8.64852609       1.11307090       4.28631386
Si       5.82670057       3.34640257       2.40250913
Si       9.14965858       3.41858634       3.95859411
Si       5.65420813       4.52583298       6.77210539
Si       3.93292947       1.60982678      -0.73932705
Si       3.74238754       4.73463326       1.87497648
Si       9.33548797       0.85141236       6.58474648
Si       5.95883529       1.91332418       0.42063147
Si       6.46642704       5.81220181       5.23247081
Si       3.71137718       0.85464476       6.64004733
Si       7.34326384       4.64018204       3.45342743
Si       6.80134938       2.41608004       4.26514445
Si       3.69102354       7.03647596       1.16390633
14
Lattice="7.766724739898603 -0.5080190594748162 0.9413525458277686 2.682966480675551 7.1379122217571185 -0.6211809923331548 1.9754897550108244 0.678161159455934 7.07781593835226" Properties=species:S:1:pos:R:3 unique_starting_index=86 config_type=initial n_minim_iter=4 stress="-3.45937694109563e-05 0.00017578556822429964 -0.00030257725570501516 0.00017578556822429964 4.5881396149245145e-05 -6.705710459111328e-05 -0.00030257725570501516 -6.705710459111328e-05 0.00011016698083058728" pbc="T T T"
Si       7.65093531       3.89144790       5.68854471
Si       8.65082473       1.11637472       4.28489253
Si       5.82647627       3.35112742       2.39816204
Si       9.15111974       3.42259078       3.95447769
Si       5.65380120       4.52603974       6.76864766
Si       3.93564947       1.61312964      -0.73953253
Si       3.74443581       4.73628478       1.87166331
Si       9.33581466       0.85306131       6.58156213
Si       5.96130177       1.91670390       0.41709218
Si       6.47084211       5.81415808       5.22841620
Si       3.70839104       0.85490025       6.64139369
Si       7.34469368       4.64138414       3.44880634
Si       6.80268998       2.41846453       4.26222082
Si       3.69815126       7.03858339       1.15952707
14
Lattice="7.769492152326285 -0.510055702447405 0.9470231242301674 2.6812535384639187 7.13627986246491 -0.6192526259789493 1.9810710220873335 0.6773968197195938 7.07835918447468" Properties=species:S:1:pos:R:3 unique_starting_index=86 config_type=initial n_minim_iter=5 stress="7.811945440284478e-05 -5.0145960028457727e-05 3.9844639725113615e-05 -5.0145960028457727e-05 -4.6554432824054695e-05 -7.45141222431185e-05 3.9844639725113615e-05 -7.45141222431185e-05 -3.513043835169821e-05" pbc="T T T"
Si       7.65627766       3.88769930       5.69321748
Si       8.65669342       1.11383714       4.29148050
Si       5.82751754       3.35024285       2.40157476
Si       9.15504945       3.41959388       3.96081384
Si       5.65836796       4.52382495       6.77107011
Si       3.93595269       1.61219402      -0.73556731
Si       3.74497343       4.73479910       1.87386222
Si       9.34310826       0.84967450       6.58740734
Si       5.96278163       1.91485863       0.42147425
Si       6.47580103       5.81162732       5.23235239
Si       3.71341061       0.85410358       6.64389651
Si       7.34690694       4.63795028       3.45343853
Si       6.80687848       2.41626724       4.26665699
Si       3.69956292       7.03692701       1.16198567
14
Lattice="7.76412812740241 -0.5062958096864378 0.9494017546455457 2.682346707048124 7.137995837517193 -0.6156966145600492 1.9820583688651507 0.6813045717123237 7.081620893896615" Properties=species:S:1:pos:R:3 unique_starting_index=86 config_type=initial n_minim_iter=6 stress="-0.00024549643757259453 0.00015317969318870563 0.00016312548725313998 0.00015317969318870563 -9.363032881294518e-06 0.0001361401523517908 0.00016312548725313998 0.0001361401523517908 0.00015860650917584875" pbc="T T T"
Si       7.65418616       3.89333211       5.69892213
Si       8.65293950       1.11981720       4.29640739
Si       5.82437093       3.35523482       2.40534595
Si       9.15124332       3.42539691       3.96613217
Si       5.65778834       4.53040287       6.77573591
Si       3.93408082       1.61355933      -0.73356562
Si       3.74403714       4.73803327       1.87694672
Si       9.33918088       0.85586395       6.59293189
Si       5.96020824       1.91760982       0.42476483
Si       6.47688201       5.81725102       5.23873399
Si       3.71278188       0.85925207       6.64750155
Si       7.34342012       4.64231911       3.45815605
Si       6.80401412       2.42085552       4.27098592
Si       3.70236162       7.04030324       1.16730734
14
Lattice="7.763814714572767 -0.506585803551238 0.9459888565549699 2.6823710675764905 7.139376065185464 -0.6159826929070004 1.9792981108996366 0.6818966150365192 7.078201696100736" Properties=species:S:1:pos:R:3 unique_starting_index=86 config_type=initial n_minim_iter=7 stress="-0.00013260997581809715 -2.8146013452540044e-05 8.971880337610522e-06 -2.8146013452540044e-05 0.00023731951557615438 0.00013232832044883622 8.971880337610522e-06 0.00013232832044883622 8.02955154525738e-06" pbc="T T T"
Si       7.65156514       3.89333382       5.69383057
Si       8.65234696       1.12046774       4.29225382
Si       5.82105581       3.35779416       2.40239935
Si       9.14975128       3.42544531       3.96092128
Si       5.65374422       4.53348464       6.76918020
Si       3.93498432       1.61304943      -0.73413797
Si       3.74104959       4.73956161       1.87358384
Si       9.33714493       0.85464976       6.58743645
Si       5.96136953       1.91728378       0.42388311
Si       6.47784806       5.81868085       5.23532584
Si       3.70970217       0.86097507       6.64313546
Si       7.33894488       4.64180480       3.45313929
Si       6.80111166       2.42059994       4.26668943
Si       3.70562519       7.04280746       1.16803643
14
Lattice="7.769048302011744 -0.5031280904442553 0.9434016726100716 2.687010666870618 7.133133349006834 -0.614856326153863 1.9787484450410804 0.683887089359714 7.077851086697381" Properties=species:S:1:pos:R:3 unique_starting_index=86 config_type=initial n_minim_iter=8 stress="0.00016698841267122905 -4.2249978039964475e-05 -2.864496781444875e-05 -4.2249978039964475e-05 -0.00022322339827873604 0.00013225321254736646 -2.864496781444875e-05 0.00013225321254736646 0.00014524105970501643" pbc="T T T"
Si       7.65644682       3.89258358       5.69236508
Si       8.65871081       1.12421940       4.29059435
Si       5.82282788       3.35896538       2.40162326
Si       9.15637431       3.42553247       3.95839769
Si       5.65546087       4.53516713       6.76607209
Si       3.93927557       1.61187530      -0.73459514
Si       3.74190689       4.73739405       1.87155387
Si       9.34245016       0.85691345       6.58584846
Si       5.96830506       1.91685066       0.42460196
Si       6.48737674       5.81716597       5.23592085
Si       3.71047077       0.86453699       6.64157336
Si       7.34132156       4.63903736       3.45089707
Si       6.80385386       2.42051802       4.26489764
Si       3.71565637       7.03886741       1.17156693
14
Lattice="7.767072528083508 -0.5010399338062727 0.9428426796510513 2.6889100124210557 7.139260624860829 -0.6166095018035008 1.978419336849715 0.682976121416462 7.073237699149846" Properties=species:S:1:pos:R:3 unique_starting_index=86 config_type=initial n_minim_iter=9 stress="4.3674054375427774e-05 5.5349561277349666e-05 3.2984851595063145e-05 5.5349561277349666e-05 0.00014157800081723154 -0.00014611810340886975 3.2984851595063145e-05 -0.00014611810340886975 -0.00022474058160090903" pbc="T T T"
Si       7.65588266       3.89554791       5.68732986
Si       8.65729127       1.12720764       4.28788077
Si       5.82070281       3.36326382       2.39909877
Si       9.15495866       3.42967502       3.95437318
Si       5.65419571       4.53975175       6.75883708
Si       3.93936077       1.61421755      -0.73468332
Si       3.74056703       4.74165323       1.86737424
Si       9.34036161       0.85746834       6.58234297
Si       5.96900907       1.91963188       0.42520361
Si       6.49107031       5.82277123       5.23147845
Si       3.71013422       0.86519288       6.63681271
Si       7.33922060       4.64305945       3.44665593
Si       6.80194227       2.42235666       4.26129439
Si       3.72093752       7.04576479       1.17016916
14
Lattice="7.758139310131707 -0.5064746077829861 0.9386447031462337 2.680995838804816 7.134833802036385 -0.6175566484407147 1.971353933135388 0.682394905513442 7.076928409042488" Properties=species:S:1:pos:R:3 unique_starting_index=86 config_type=initial n_minim_iter=10 stress="-0.00044417730418253726 -0.00028470027662317536 -0.00020751163321549508 -0.00028470027662317536 -8.46869061723277e-05 -0.00012359359364049995 -0.00020751163321549508 -0.00012359359364049995 0.00014006222228530089" pbc="T T T"
Si       7.64093422       3.88795640       5.68707692
Si       8.64311011       1.12175192       4.28587483
Si       5.80834302       3.35701921       2.39764352
Si       9.13783711       3.42258527       3.95131543
Si       5.63811092       4.53562820       6.75903058
Si       3.93452871       1.61149240      -0.73741101
Si       3.72915550       4.73735104       1.86547143
Si       9.32428127       0.84989262       6.58301061
Si       5.96200524       1.91424274       0.42363440
Si       6.48013781       5.81935003       5.23261764
Si       3.70313126       0.86330175       6.63937888
Si       7.32488488       4.63680932       3.44520821
Si       6.78913594       2.41631147       4.26014197
Si       3.71513053       7.04171885       1.16975195
14
Lattice="7.765353874468802 -0.501182928243997 0.9378309358332817 2.6880120744528786 7.135489529050395 -0.6139359287862947 1.973430609032011 0.6870666143425416 7.075196737642308" Properties=species:S:1:pos:R:3 unique_starting_index=86 config_type=initial n_minim_iter=11 stress="2.9233802288501018e-05 5.986823816462753e-05 -6.497415224409658e-05 5.986823816462753e-05 2.023507728372205e-05 8.54235904080353e-05 -6.497415224409658e-05 8.54235904080353e-05 0.00012858008302270437" pbc="T T T"
Si       7.65089812       3.89377044       5.68723738
Si       8.65089604       1.12959540       4.28520328
Si       5.81415548       3.35991588       2.39832305
Si       9.14681029       3.43016976       3.95090396
Si       5.64388936       4.54244755       6.75740100
Si       3.93943258       1.61429599      -0.73665905
Si       3.73315262       4.73973491       1.86556894
Si       9.33254264       0.85750637       6.58293674
Si       5.97039690       1.91762782       0.42557707
Si       6.49366628       5.82771596       5.23444890
Si       3.70906800       0.86887747       6.63828229
Si       7.33447344       4.64302762       3.44654355
Si       6.79611625       2.42153277       4.25953154
Si       3.72726198       7.04468190       1.17241991
14
Lattice="7.7654610030250995 -0.5003310529655102 0.9370598870651808 2.6888467555231625 7.135125838435086 -0.6137509560941117 1.9731851884483174 0.6872961419296526 7.072401317988446" Properties=species:S:1:pos:R:3 unique_starting_index=86 config_type=initial n_minim_iter=12 stress="1.853899373339386e-05 -1.3279425484622727e-05 8.15837365010531e-05 -1.3279425484622727e-05 -2.6326667315992626e-06 -3.494047528011544e-05 8.15837365010531e-05 -3.494047528011544e-05 -7.823973471759255e-05" pbc="T T T"
Si       7.65114150       3.89271281       5.68483692
Si       8.65065997       1.13080470       4.28417310
Si       5.81120508       3.36051028       2.39721205
Si       9.14589479       3.43041336       3.94798062
Si       5.64127669       4.54509385       6.75035702
Si       3.94034283       1.61461164      -0.73598855
Si       3.72963396       4.73958163       1.86210943
Si       9.33198829       0.85567717       6.58197324
Si       5.97298829       1.91718404       0.42740928
Si       6.50026732       5.82925610       5.23371737
Si       3.71051282       0.87098612       6.63553609
Si       7.33183207       4.64282571       3.44402938
Si       6.79425593       2.42081197       4.25702422
Si       3.73514364       7.04599338       1.17349795
14
Lattice="7.765342552224867 -0.500690516453497 0.9338946709718241 2.6888798650711414 7.133937755629968 -0.6156309598672874 1.9702209642746482 0.686410920338426 7.072064974378071" Properties=species:S:1:pos:R:3 unique_starting_index=86 config_type=initial n_minim_iter=13 stress="2.018617182363136e-06 -5.3053673144564315e-05 6.346353971151915e-05 -5.3053673144564315e-05 5.860094481432737e-06 -9.338305722709543e-06 6.346353971151915e-05 -9.338305722709543e-06 0.0001234326678242211" pbc="T T T"
Si       7.64916559       3.89201857       5.68247778
Si       8.64715807       1.12846440       4.28152135
Si       5.81073135       3.35807114       2.39469386
Si       9.14363270       3.42918339       3.94378556
Si       5.63791142       4.54409400       6.74532764
Si       3.94051435       1.61497336      -0.73720550
Si       3.72837365       4.73724530       1.86027245
Si       9.32886943       0.85339874       6.57911753
Si       5.97249375       1.91625727       0.42404917
Si       6.49892311       5.82680831       5.23188775
Si       3.70985005       0.87168999       6.63501440
Si       7.33083982       4.64324180       3.44116170
Si       6.79215618       2.42064355       4.25416082
Si       3.73535418       7.04406751       1.17002323
14
Lattice="7.765973394218155 -0.49884165552316856 0.9308997927719569 2.691073310632538 7.133898897761227 -0.6159620069358177 1.9681083341841297 0.68731171239029 7.070125129734426" Properties=species:S:1:pos:R:3 unique_starting_index=86 config_type=initial n_minim_iter=14 stress="-9.472255490926326e-06 -3.2182584369119086e-06 -2.71518641864066e-05 -3.2182584369119086e-06 9.697948858188719e-06 3.885170844507405e-06 -2.71518641864066e-05 3.885170844507405e-06 1.3210890760003585e-07" pbc="T T T"
Si       7.64925322       3.89350429       5.67905226
Si       8.64661033       1.13018180       4.27850189
Si       5.81036708       3.35951951       2.39218214
Si       9.14357351       3.43094432       3.93988999
Si       5.63607495       4.54640471       6.74046176
Si       3.94198571       1.61591345      -0.73799272
Si       3.72808977       4.73747076       1.85806516
Si       9.32788294       0.85454956       6.57532505
Si       5.97414501       1.91697189       0.42239206
Si       6.50149086       5.82846236       5.22974263
Si       3.70898091       0.87412667       6.63268430
Si       7.33055565       4.64480827       3.43786405
Si       6.79150045       2.42229477       4.25129443
Si       3.73940390       7.04462116       1.16922642
14
Lattice="7.767842989238664 -0.4944342983131295 0.9263828740743435 2.695979705222433 7.1330531850845444 -0.6152005028080119 1.9653379479664421 0.6901758207464656 7.067675951510807" Properties=species:S:1:pos:R:3 unique_starting_index=86 config_type=initial n_minim_iter=15 stress="-1.3864210474944885e-05 7.650078726825561e-05 -0.00011579182573020145 7.650078726825561e-05 1.2653865063426646e-05 3.3247733444903133e-06 -0.00011579182573020145 3.3247733444903133e-06 -0.00016672715072205623" pbc="T T T"
Si       7.65138625       3.89750649       5.67450779
Si       8.64673296       1.13412255       4.27499929
Si       5.81061523       3.36353528       2.38837245
Si       9.14449859       3.43454325       3.93556158
Si       5.63363421       4.55192911       6.73396651
Si       3.94560241       1.61794424      -0.73945894
Si       3.72872706       4.73776575       1.85477490
Si       9.32807276       0.85781173       6.57068262
Si       5.97802267       1.91811885       0.42049367
Si       6.50872206       5.83315160       5.22812026
Si       3.70868931       0.88042912       6.62947478
Si       7.33103195       4.64816750       3.43322364
Si       6.79194348       2.42673895       4.24882927
Si       3.74795641       7.04495535       1.16972423
14
Lattice="7.768461648238071 -0.4953430315746623 0.9283515453803911 2.694869570959259 7.130809046342332 -0.6136979300999006 1.9669442171210616 0.6907616317496621 7.0701825148754835" Properties=species:S:1:pos:R:3 unique_starting_index=86 config_type=initial n_minim_iter=16 stress="-1.3791989480941792e-05 -4.14737268212462e-05 2.95103796135131e-05 -4.14737268212462e-05 -1.7332141390044732e-05 1.3079108426408134e-05 2.95103796135131e-05 1.3079108426408134e-05 3.837942360375564e-06" pbc="T T T"
Si       7.65263874       3.89793528       5.67874656
Si       8.64625958       1.13131734       4.27845549
Si       5.81262798       3.36187887       2.39020539
Si       9.14461171       3.43180600       3.94049237
Si       5.63445161       4.55102883       6.73843430
Si       3.94562601       1.61749915      -0.73971329
Si       3.72986737       4.73534697       1.85665774
Si       9.32991538       0.85660884       6.57532904
Si       5.97732688       1.91602218       0.42152594
Si       6.50883530       5.83237104       5.23217244
Si       3.71132418       0.88141812       6.63209548
Si       7.33215090       4.64775013       3.43612086
Si       6.79376582       2.42712701       4.25295403
Si       3.74486968       7.04173690       1.17117509
14
Lattice="7.77022841517546 -0.4927802074957458 0.9282538564375674 2.6978690564203025 7.131070212220761 -0.6137857551354139 1.9675280840708982 0.6913398355511561 7.070497344192891" Properties=species:S:1:pos:R:3 unique_starting_index=86 config_type=initial n_minim_iter=17 stress="4.7225947017241023e-05 4.727721392894776e-05 8.434701661641328e-06 4.727721392894776e-05 3.43266261627512e-05 -4.258885133458887e-05 8.434701661641328e-06 -4.258885133458887e-05 0.00011739554986353103" pbc="T T T"
Si       7.65555688       3.90079386       5.67987947
Si       8.64816238       1.13217080       4.27928018
Si       5.81555660       3.36421335       2.38950558
Si       9.14715861       3.43326971       3.94150895
Si       5.63652226       4.55315307       6.73799237
Si       3.94758575       1.61930695      -0.73932581
Si       3.73245158       4.73541837       1.85588967
Si       9.33247702       0.85827343       6.57595036
Si       5.97920290       1.91703087       0.42137377
Si       6.51368165       5.83476836       5.23244380
Si       3.71260118       0.88364561       6.63287011
Si       7.33475510       4.64988215       3.43517241
Si       6.79686752       2.43016933       4.25205156
Si       3.74777075       7.04230107       1.17096001
14
Lattice="7.7702619639856545 -0.49289522114751555 0.9268227713655688 2.697678925753014 7.130210632335965 -0.6125244820914136 1.9665087571388022 0.6926993120998919 7.068881480473397" Properties=species:S:1:pos:R:3 unique_starting_index=86 config_type=initial n_minim_iter=18 stress="-2.6429537866544893e-05 -1.9028404198727194e-05 -4.540135300433614e-06 -1.9028404198727194e-05 -2.1567941549669044e-05 2.3468840539600473e-05 -4.540135300433614e-06 2.3468840539600473e-05 -4.848207334122817e-05" pbc="T T T"
Si       7.65430028       3.90130385       5.67889150
Si       8.64712485       1.13193601       4.27769845
Si       5.81476697       3.36402454       2.38856268
Si       9.14566646       3.43278536       3.94033171
Si       5.63454898       4.55500804       6.73561218
Si       3.94806489       1.61917269      -0.73961406
Si       3.73107243       4.73497535       1.85489829
Si       9.33116485       0.85809628       6.57434189
Si       5.97976149       1.91605036       0.42182678
Si       6.51501273       5.83608045       5.23202370
Si       3.71231810       0.88534111       6.63130002
Si       7.33367797       4.64999074       3.43392014
Si       6.79621011       2.43056308       4.25003745
Si       3.74865056       7.04217681       1.17198788
14
Lattice="7.771880469935963 -0.49246644582946025 0.9266012304686299 2.6986922218937432 7.130706012349569 -0.6126130621967314 1.9667952289731918 0.6928096481267719 7.068625344145221" Properties=species:S:1:pos:R:3 unique_starting_index=86 config_type=initial n_minim_iter=19 stress="-3.157797813495463e-06 4.714553632102028e-06 8.558306421717984e-06 4.714553632102028e-06 3.2284797218319433e-05 -1.3895370401558067e-06 8.558306421717984e-06 -1.3895370401558067e-06 -3.455718514904111e-05" pbc="T T T"
Si       7.65514729       3.90191078       5.67872481
Si       8.64924415       1.13171311       4.27753836
Si       5.81663227       3.36496995       2.38743879
Si       9.14709210       3.43301259       3.94089693
Si       5.63629586       4.55632795       6.73517213
Si       3.94953375       1.61972637      -0.74033188
Si       3.73268902       4.73569833       1.85471807
Si       9.33265095       0.85855967       6.57391124
Si       5.98107842       1.91599800       0.42246233
Si       6.51685415       5.83679032       5.23120907
Si       3.71213352       0.88542988       6.63134776
Si       7.33628580       4.65051064       3.43339207
Si       6.79879250       2.43128871       4.24947229
Si       3.74824874       7.04263314       1.17189989
14
Lattice="7.7727380968119935 -0.49227234400312414 0.9253259703554476 2.699290107546357 7.129811959824032 -0.6132746813451145 1.9658655054248724 0.6925743497769837 7.06852037275058" Properties=species:S:1:pos:R:3 unique_starting_index=86 config_type=initial n_minim_iter=20 stress="3.7921116097451596e-06 -1.760771440832785e-06 -5.257506818339899e-06 -1.760771440832785e-06 -1.0650883437094873e-05 -2.1656442970740677e-06 -5.257506818339899e-06 -2.1656442970740677e-06 2.157330021981414e-05" pbc="T T T"
Si       7.65508809       3.90113808       5.67788783
Si       8.64930513       1.13126445       4.27660696
Si       5.81694546       3.36444886       2.38621660
Si       9.14710818       3.43251192       3.93961869
Si       5.63564684       4.55641058       6.73291631
Si       3.95038986       1.61991963      -0.74110686
Si       3.73257588       4.73495205       1.85380358
Si       9.33236862       0.85779264       6.57301159
Si       5.98199746       1.91550395       0.42175433
Si       6.51798971       5.83600428       5.23032669
Si       3.71181709       0.88574934       6.63115465
Si       7.33690732       4.65030297       3.43209635
Si       6.79905291       2.43098903       4.24828094
Si       3.74916733       7.04171741       1.17096187
