24
Lattice="9.582708065774455 0.689268354457357 -0.09072564827158619 -3.8322413345875335 6.034948748289932 1.209814812412169 -0.45505438303394846 1.2043092573823149 8.459864878601252" Properties=species:S:1:pos:R:3 unique_starting_index=90 config_type=initial n_minim_iter=1 energy=-3905.394441562423 free_energy=-3905.394441562423 pbc="T T T"
Si       6.80823626       0.82420755       5.29731175
Si       1.17412883       2.75092369       0.70689045
Si       6.14959847       5.68779427       2.89612509
Si       1.91291610       0.82759810       1.94133105
Si       4.66893394       3.58855488       8.21916292
Si      -2.18954135       5.46423091       8.11687025
Si       1.03906987       2.02418968       4.05882662
Si       2.20261540       4.81680234       7.53240975
Si      -1.12548706       7.03340538       6.66563478
Si       5.76030876       2.81350409       6.14332272
Si       1.62148007       3.95627186       2.88521037
Si       4.00290030       6.78637686       2.86594604
Si       4.06411501       6.62713100       0.40700271
Si       8.35269845       4.00751140       7.45052528
Si      -0.53650243       4.20214227       1.77585392
Si      -3.25964505       7.62604196       9.04102170
Si      -1.18304659       2.13428429       2.91420159
Si       5.22841649       5.95771287       9.13836281
Si       2.81675230       2.53493656       7.21001193
Si      -0.47883064       3.60172277       5.34711129
Si       0.65005069       5.65985595       5.78728904
Si       4.13625067       0.55742845       1.11969644
Si       6.96586101       3.94023814       4.35564927
Si       2.01815977       6.04303193       3.93842083
24
Lattice="9.556067986673215 0.6916388875271784 -0.09998097787555156 -3.8193910728870697 6.009742162592012 1.2160554024473105 -0.46173403599058976 1.2043200952032713 8.452365390485404" Properties=species:S:1:pos:R:3 unique_starting_index=90 config_type=initial n_minim_iter=2 stress="-0.0038577674336824296 -0.00013169867400094948 -0.00028906949453216064 -0.00013169867400094948 -0.0042840182762020245 -0.0003618882607290531 -0.00028906949453216064 -0.0003618882607290531 -0.0034393575248814726" pbc="T T T"
Si       6.78487115       0.82623054       5.28525004
Si       1.17156120       2.74444734       0.70500812
Si       6.13244924       5.66901985       2.89009651
Si       1.90473357       0.82492134       1.93936914
Si       4.64810874       3.58365498       8.20816955
Si      -2.18879958       5.44514934       8.11522163
Si       1.03218428       2.01827362       4.05524625
Si       2.19219548       4.80154677       7.52521111
Si      -1.12646517       7.00749309       6.66404356
Si       5.73929349       2.80882312       6.13327290
Si       1.61641204       3.94293990       2.88357753
Si       3.99277817       6.76418021       2.86369087
Si       4.05644007       6.60288105       0.40828256
Si       8.32500999       3.99923803       7.43764690
Si      -0.53508592       4.18672556       1.77608486
Si      -3.25435995       7.60132472       9.04094047
Si      -1.18194339       2.12583785       2.91197258
Si       5.20800835       5.94334303       9.12619101
Si       2.80306165       2.53110591       7.20128006
Si      -0.47939928       3.59147469       5.34412382
Si       0.64442300       5.64166624       5.78480789
Si       4.12300680       0.55685239       1.11384462
Si       6.94161357       3.93316413       4.34571637
Si       2.01291436       6.02364232       3.93344046
24
Lattice="9.566544309342374 0.7379591014954842 -0.16149613263159346 -3.7978455107160407 5.960938175400681 1.3026396647327205 -0.5132885578134195 1.2565256404660938 8.57741304436706" Properties=species:S:1:pos:R:3 unique_starting_index=90 config_type=initial n_minim_iter=3 stress="0.0018766975083626361 0.0020606627017088182 -0.004570820979331076 0.0020606627017088182 -0.0024009036080347647 0.0022403711880288756 -0.004570820979331076 0.0022403711880288756 0.007347692853523299" pbc="T T T"
Si       6.76699594       0.88028112       5.31293948
Si       1.18293616       2.77466510       0.70977978
Si       6.14824764       5.67417552       2.92653130
Si       1.88434960       0.82750705       1.97484130
Si       4.60235951       3.66714150       8.31362495
Si      -2.21823793       5.44763089       8.29106959
Si       1.00630167       2.03132579       4.12231090
Si       2.17730970       4.81981433       7.64536736
Si      -1.14706694       6.99163285       6.81165888
Si       5.71571021       2.86474236       6.20140757
Si       1.62305388       3.94550794       2.94684807
Si       4.01683361       6.77307563       2.93228236
Si       4.09791955       6.58161209       0.45546375
Si       8.31492704       4.06025450       7.51862964
Si      -0.53134749       4.17586204       1.82395471
Si      -3.26457508       7.62259287       9.25454927
Si      -1.19591432       2.11595220       2.95630455
Si       5.18611814       6.01105352       9.24584093
Si       2.77201223       2.58714980       7.29670826
Si      -0.48008086       3.61726407       5.44378466
Si       0.62604001       5.65766545       5.90704599
Si       4.11322421       0.57052582       1.09583235
Si       6.91375708       4.00053740       4.37827262
Si       2.03318242       6.03766313       3.99087270
24
Lattice="9.539728881800865 0.706254597679337 -0.020579387693829623 -3.7959284264743385 6.040719865814361 1.208405601693826 -0.3922884509107292 1.2466977989300303 8.42946820475369" Properties=species:S:1:pos:R:3 unique_starting_index=90 config_type=initial n_minim_iter=4 stress="-0.001503190016461736 -0.0009915863545158843 0.0035174368618003547 -0.0009915863545158843 0.0005489816315713377 0.0017308080008992222 0.0035174368618003547 0.0017308080008992222 -0.0020277161886045466" pbc="T T T"
Si       6.83513711       0.82814082       5.32171096
Si       1.17999473       2.83563704       0.69201977
Si       6.15311224       5.69051697       2.94776370
Si       1.89404493       0.80627902       1.98402411
Si       4.68589281       3.68465604       8.23795642
Si      -2.11823240       5.48215904       8.12247637
Si       1.04456387       2.02731327       4.06999698
Si       2.27247975       4.82380808       7.54096694
Si      -1.08727743       7.03985389       6.66770464
Si       5.78133196       2.85163145       6.18310907
Si       1.65030338       3.97157051       2.91888842
Si       4.02624471       6.83241042       2.93074553
Si       4.07219142       6.63298163       0.51120789
Si       8.40306692       4.03457085       7.51471447
Si      -0.52840003       4.22456652       1.76437416
Si      -3.13979427       7.71459188       9.05234136
Si      -1.16539140       2.12597561       2.86934349
Si       5.29009050       6.03894208       9.14738471
Si       2.86432693       2.58217226       7.21136633
Si      -0.40087930       3.65349034       5.33858987
Si       0.68022659       5.70833781       5.80997143
Si       4.10739109       0.54294497       1.12796651
Si       6.92501557       4.02302307       4.39212210
Si       2.07321090       6.09620904       3.91651831
24
Lattice="9.563974043105823 0.7139096814535881 -0.07915124992563212 -3.807907195499567 6.033534480195382 1.184538834959642 -0.4400070559187904 1.1861413638908342 8.41084859024761" Properties=species:S:1:pos:R:3 unique_starting_index=90 config_type=initial n_minim_iter=5 stress="-0.00024321043280149942 7.468273936299315e-05 0.00018827335214764533 7.468273936299315e-05 0.0008674739951683001 -0.0019662600619425783 0.00018827335214764533 -0.0019662600619425783 -0.0017285121189654965" pbc="T T T"
Si       6.82193778       0.79500427       5.26980793
Si       1.18127537       2.83023853       0.66779196
Si       6.15431439       5.67961463       2.86592101
Si       1.88760617       0.79640011       1.96315567
Si       4.65320093       3.63077331       8.17335861
Si      -2.16511585       5.42527016       8.08234374
Si       1.02475394       2.00002463       4.04361522
Si       2.23993920       4.77673093       7.48088283
Si      -1.12321451       6.99695510       6.61549472
Si       5.76328459       2.81200742       6.12222034
Si       1.64059406       3.95479656       2.87681025
Si       4.02579712       6.81898087       2.85388351
Si       4.08318096       6.63794283       0.43895837
Si       8.38369975       3.98985872       7.42661905
Si      -0.53624191       4.21439586       1.73553644
Si      -3.19272729       7.65231760       9.00315296
Si      -1.18368171       2.10818392       2.85931039
Si       5.25518739       5.98074549       9.06219583
Si       2.83361723       2.53090566       7.16464850
Si      -0.43271949       3.61618363       5.30575340
Si       0.65657606       5.67183247       5.75501209
Si       4.11105658       0.53825724       1.09925293
Si       6.92505072       3.99636352       4.31997936
Si       2.05727068       6.07181052       3.85776078
24
Lattice="9.580498703752237 0.6942058818737298 -0.10715233941436363 -3.8287574405355014 6.016938927489207 1.2382550719439411 -0.4706429418412049 1.2298666315587095 8.462633430317668" Properties=species:S:1:pos:R:3 unique_starting_index=90 config_type=initial n_minim_iter=6 stress="0.0015050800513802924 -0.001079404168840541 -0.001678279592545593 -0.001079404168840541 -0.000671357563698914 0.0005509822556331799 -0.001678279592545593 0.0005509822556331799 0.0003955998981883299" pbc="T T T"
Si       6.81336410       0.81000105       5.27881130
Si       1.17929513       2.80766277       0.69423372
Si       6.14312393       5.66302739       2.88947976
Si       1.88260816       0.80912800       1.96578976
Si       4.62843417       3.65091889       8.22137109
Si      -2.20431249       5.44888106       8.15732948
Si       1.00848530       2.01370753       4.07116502
Si       2.21334563       4.80027761       7.53499927
Si      -1.16084384       7.00399225       6.69815884
Si       5.75146664       2.82213454       6.15175505
Si       1.62630054       3.94781580       2.90948011
Si       4.01495602       6.79326298       2.89240040
Si       4.07622312       6.60414656       0.46141943
Si       8.36521322       4.00150029       7.45567727
Si      -0.54873185       4.20380545       1.77642561
Si      -3.24013846       7.67192741       9.10767070
Si      -1.20009489       2.12538414       2.89815934
Si       5.22332266       5.99468008       9.12713942
Si       2.81322281       2.54830227       7.20315188
Si      -0.46653690       3.62714284       5.35289398
Si       0.63922612       5.67884685       5.80936266
Si       4.11265852       0.53674649       1.09401158
Si       6.92955031       3.98266085       4.34751179
Si       2.03002895       6.05686240       3.91355188
24
Lattice="9.52512130391775 0.7772268775074758 -0.07237835728842285 -3.7473483147681548 5.981154232401734 1.2397710184423159 -0.4265475534344277 1.2337523145279055 8.527285933508322" Properties=species:S:1:pos:R:3 unique_starting_index=90 config_type=initial n_minim_iter=7 stress="-0.001931844824713584 0.0037745592557640807 -0.0004038728860054562 0.0037745592557640807 0.00040254146247427905 -0.00010952352131969758 -0.0004038728860054562 -0.00010952352131969758 0.0035024744718085473" pbc="T T T"
Si       6.79764615       0.86479270       5.34261381
Si       1.20415842       2.82158200       0.71435729
Si       6.15809981       5.71600952       2.93130977
Si       1.87799776       0.83114817       1.98804307
Si       4.65332049       3.70637467       8.30488313
Si      -2.11448375       5.42669998       8.21641328
Si       1.02534194       2.02190045       4.10910055
Si       2.27640488       4.82413242       7.59833081
Si      -1.07748781       6.98953002       6.75856944
Si       5.76569779       2.87128218       6.22748365
Si       1.66156085       3.95907064       2.94592908
Si       4.06538183       6.82842064       2.93645512
Si       4.10902788       6.63799125       0.49109781
Si       8.37814642       4.07599259       7.54392509
Si      -0.50346001       4.19966894       1.79497370
Si      -3.11005587       7.65982815       9.18775967
Si      -1.16897657       2.12469640       2.92209781
Si       5.27589914       6.05123898       9.21785729
Si       2.84884060       2.56866664       7.26412837
Si      -0.41859943       3.62803702       5.39110858
Si       0.71622176       5.69591818       5.85624316
Si       4.08662655       0.56824083       1.11289225
Si       6.94400507       4.04453356       4.41423822
Si       2.07870180       6.07488637       3.95453366
24
Lattice="9.574863817849982 0.72499103472884 -0.04341773874687586 -3.7960010799041304 5.972844002589 1.2273791903499833 -0.40989082718968534 1.2317185652652651 8.513568580752045" Properties=species:S:1:pos:R:3 unique_starting_index=90 config_type=initial n_minim_iter=8 stress="0.0009669936648400301 -0.0004940946331952248 0.0002971737439628087 -0.0004940946331952248 -0.0024900747336327 -0.0006364252866353256 0.0002971737439628087 -0.0006364252866353256 0.0013812702171055028" pbc="T T T"
Si       6.86043258       0.78771234       5.34506944
Si       1.21538567       2.84554832       0.72423776
Si       6.16054200       5.64618256       2.91955791
Si       1.86073431       0.81477025       2.00278298
Si       4.65406911       3.70658515       8.30611985
Si      -2.13308018       5.38299495       8.20746614
Si       1.00092930       1.98971584       4.11262920
Si       2.31624092       4.77362008       7.57512371
Si      -1.13495944       6.93315670       6.76308906
Si       5.81340401       2.81220921       6.25375554
Si       1.66512165       3.92185836       2.96490403
Si       4.07856301       6.79042983       2.95280227
Si       4.10085514       6.58961532       0.53534824
Si       8.45097319       3.99435677       7.55290484
Si      -0.53301065       4.19056582       1.78827438
Si      -3.10139340       7.68850507       9.21906400
Si      -1.19716907       2.13135632       2.90996705
Si       5.30876565       6.01951687       9.20223546
Si       2.89273271       2.51701627       7.24120599
Si      -0.42555708       3.63086414       5.36985308
Si       0.72950384       5.69374237       5.84017155
Si       4.08125548       0.52046152       1.10175823
Si       6.97711813       4.00812152       4.43543178
Si       2.06666053       6.04482523       3.92593157
24
Lattice="9.546124698102105 0.7385799004059596 -0.06771667191292609 -3.782182744760013 6.020837711572266 1.2577066143201059 -0.43201492690629273 1.277811944081856 8.468207105011553" Properties=species:S:1:pos:R:3 unique_starting_index=90 config_type=initial n_minim_iter=9 stress="-0.0006739446631147126 5.8893266963594826e-05 -0.0017596270795351705 5.8893266963594826e-05 0.00200931076464826 0.0016351928620319059 -0.0017596270795351705 0.0016351928620319059 -0.002968100564609997" pbc="T T T"
Si       6.83062168       0.80521937       5.28934543
Si       1.22217942       2.89349245       0.73290343
Si       6.13379348       5.70028192       2.89737562
Si       1.83684811       0.83087119       1.99390088
Si       4.60323487       3.79249922       8.25684735
Si      -2.14557427       5.44136007       8.19278685
Si       0.97229903       2.01415459       4.09712779
Si       2.30468241       4.83433635       7.53493526
Si      -1.16095480       6.99915278       6.76070715
Si       5.78656598       2.85647177       6.22080297
Si       1.65744144       3.96056978       2.96780844
Si       4.06919300       6.86605503       2.95763304
Si       4.09186525       6.64892414       0.56396840
Si       8.41917072       4.05552949       7.49535493
Si      -0.53706081       4.23253156       1.79506543
Si      -3.09305841       7.80870969       9.23342279
Si      -1.20806433       2.16377687       2.90462145
Si       5.27421559       6.12105664       9.14883621
Si       2.87637486       2.55784829       7.18979987
Si      -0.43647441       3.69140666       5.34957402
Si       0.72534930       5.77671998       5.82407586
Si       4.05261010       0.52192784       1.07629793
Si       6.94576361       4.07305389       4.40981937
Si       2.05245677       6.11427653       3.90640506
24
Lattice="9.53640189090813 0.7277853103584655 -0.0247694666535385 -3.77846306230115 6.000934205493198 1.234033740999653 -0.3929549162222299 1.2556840746785938 8.515566420364246" Properties=species:S:1:pos:R:3 unique_starting_index=90 config_type=initial n_minim_iter=10 stress="-0.00027466844784821646 -0.000672047190539794 0.0001493513935648205 -0.000672047190539794 0.0009987588578084182 -0.0001209848879489299 0.0001493513935648205 -0.0001209848879489299 0.00010288378637742151" pbc="T T T"
Si       6.85322471       0.77173745       5.34402171
Si       1.23426630       2.90004886       0.74295760
Si       6.13319006       5.66294659       2.92156836
Si       1.83373886       0.82425732       2.01605672
Si       4.61842280       3.77133539       8.31785257
Si      -2.10926825       5.38853825       8.22471806
Si       0.97386176       1.98917961       4.12612288
Si       2.34458837       4.78668343       7.57451814
Si      -1.14845950       6.94631706       6.78185124
Si       5.81552790       2.81717668       6.29035091
Si       1.66781866       3.93369899       2.99329725
Si       4.07422562       6.84014681       2.98512717
Si       4.08140911       6.62696678       0.58202224
Si       8.45366234       4.01172140       7.56496903
Si      -0.53506762       4.21493519       1.79244787
Si      -3.03832330       7.78768097       9.28608892
Si      -1.20277208       2.15594146       2.91469984
Si       5.30730810       6.08626251       9.20812460
Si       2.91794331       2.51882064       7.23125790
Si      -0.41372049       3.67990406       5.36838783
Si       0.75514643       5.75641009       5.84721066
Si       4.04076031       0.50626037       1.09399677
Si       6.95547479       4.04989171       4.46576073
Si       2.05986788       6.08519352       3.90865048
24
Lattice="9.6316265687288 0.7713490725948726 0.06627161643939095 -3.7713385534074244 5.908949115313396 1.198164063676754 -0.309866758445443 1.2343929042916135 8.539893975612475" Properties=species:S:1:pos:R:3 unique_starting_index=90 config_type=initial n_minim_iter=11 stress="0.003933452909673033 0.0010678037032194401 0.0024005064696185894 0.0010678037032194401 -0.0036615939133230182 -0.001907478206703132 0.0024005064696185894 -0.001907478206703132 0.00016952040554733323" pbc="T T T"
Si       6.97855709       0.78271578       5.40259422
Si       1.30410352       2.90447339       0.77740607
Si       6.24661565       5.61540479       2.97421950
Si       1.86345865       0.83780210       2.04025609
Si       4.72837927       3.76247238       8.37673645
Si      -2.01407814       5.26485905       8.23487655
Si       1.00396823       1.95340231       4.15664977
Si       2.47951105       4.70719954       7.60978553
Si      -1.08124751       6.82460240       6.77578426
Si       5.96565022       2.78506647       6.39070583
Si       1.73316649       3.88248712       3.03284825
Si       4.16777608       6.79687523       3.04242201
Si       4.14606164       6.59038250       0.62975620
Si       8.64636358       4.00278205       7.64370183
Si      -0.50291193       4.15333862       1.78684513
Si      -2.91435058       7.72061447       9.34411285
Si      -1.18609783       2.13173012       2.92943367
Si       5.47055960       6.05898720       9.27346342
Si       3.05992836       2.47472011       7.25727914
Si      -0.34397254       3.66316996       5.37728564
Si       0.86509985       5.71437758       5.86677992
Si       4.07100646       0.51515058       1.12987125
Si       7.08152789       4.04599713       4.56048036
Si       2.13410325       6.02099399       3.89705517
24
Lattice="9.552796016568776 0.7312493286036278 0.08092442308946292 -3.764928713442353 5.933231214176585 1.2018622937609034 -0.29787404413068336 1.238233005873884 8.60634796173476" Properties=species:S:1:pos:R:3 unique_starting_index=90 config_type=initial n_minim_iter=12 stress="0.001268727538268882 -0.00045853750095164683 0.0022085704480829926 -0.00045853750095164683 -0.0022077655532439775 -0.0023197702581257223 0.0022085704480829926 -0.0023197702581257223 0.0031279051268976775" pbc="T T T"
Si       6.93030555       0.75062243       5.43902366
Si       1.30440164       2.91885224       0.79987043
Si       6.17801685       5.59112761       3.00305722
Si       1.84657762       0.84082505       2.05850359
Si       4.67282940       3.75143421       8.44178436
Si      -1.99930344       5.25719717       8.30006639
Si       0.98125734       1.94438601       4.19578270
Si       2.45820603       4.68655023       7.66873982
Si      -1.09917231       6.82478144       6.81460436
Si       5.92874264       2.74844991       6.46393152
Si       1.70714432       3.87354575       3.06554531
Si       4.10205946       6.79754328       3.07901867
Si       4.07579118       6.59520935       0.64254612
Si       8.58368622       3.97107540       7.70010831
Si      -0.51301463       4.15405728       1.79653778
Si      -2.89912522       7.76873780       9.44428494
Si      -1.18342392       2.14329870       2.96421272
Si       5.41243510       6.05415406       9.34807139
Si       3.05624107       2.45020415       7.30474266
Si      -0.34578756       3.68928648       5.41685511
Si       0.85264234       5.73057474       5.91301917
Si       4.02996014       0.49839809       1.14432294
Si       7.01421204       4.02496744       4.61804737
Si       2.08795274       6.01799181       3.90798236
24
Lattice="9.513827764630577 0.7206330176246365 0.08139961636786786 -3.7575783988399625 5.958808293438344 1.2263718054173447 -0.29942866001709734 1.274163194545599 8.616275569478159" Properties=species:S:1:pos:R:3 unique_starting_index=90 config_type=initial n_minim_iter=13 stress="-6.795171639331002e-05 -0.0006310811859193262 0.0006718795222675103 -0.0006310811859193262 0.0002426310808537637 -0.0007078801071214107 0.0006718795222675103 -0.0007078801071214107 0.0020748939772797163" pbc="T T T"
Si       6.89718694       0.76518598       5.42573205
Si       1.31852357       2.94014401       0.82914074
Si       6.14512275       5.60648334       3.02712200
Si       1.84138267       0.86026677       2.06272260
Si       4.63689716       3.78380188       8.45340463
Si      -1.98851837       5.28469281       8.32925445
Si       0.96535656       1.95870536       4.21097749
Si       2.44160110       4.71124827       7.68698681
Si      -1.10850270       6.86099673       6.82894814
Si       5.90853028       2.75742602       6.48993855
Si       1.69235587       3.88523458       3.08397397
Si       4.06706048       6.83041571       3.10932896
Si       4.03967305       6.62438839       0.66636631
Si       8.54994229       3.99961441       7.70134556
Si      -0.51303871       4.16168854       1.80808936
Si      -2.89825158       7.85072933       9.50455733
Si      -1.18027836       2.16061504       2.99164069
Si       5.37340982       6.10472050       9.37307328
Si       3.05523900       2.46250406       7.30280455
Si      -0.34734903       3.73843611       5.43154957
Si       0.85047039       5.77569165       5.93896739
Si       4.01055071       0.50357256       1.14843263
Si       6.97722778       4.04564699       4.64822788
Si       2.05523823       6.04007708       3.91458091
24
Lattice="9.500681231864984 0.7244048322071432 0.08787559651787882 -3.7494200099836874 5.9652320326046455 1.244327126516509 -0.294865673650918 1.304455774388335 8.60850210410314" Properties=species:S:1:pos:R:3 unique_starting_index=90 config_type=initial n_minim_iter=14 stress="-0.0011258328314696902 -0.00013876731517916435 -0.0009396614641851607 -0.00013876731517916435 0.0009811916931890177 0.0006532950290248383 -0.0009396614641851607 0.0006532950290248383 -0.00012645697314233852" pbc="T T T"
Si       6.88312945       0.79042345       5.40715856
Si       1.33994734       2.95655139       0.85631694
Si       6.13771814       5.62244973       3.05194608
Si       1.84657295       0.87849174       2.06788274
Si       4.63007501       3.81168051       8.45315095
Si      -1.96845987       5.30177907       8.33993406
Si       0.96252618       1.97113633       4.21852596
Si       2.43988298       4.73269491       7.68895769
Si      -1.10235353       6.88353145       6.82773029
Si       5.90561415       2.77181477       6.50240001
Si       1.68987118       3.89066594       3.09208446
Si       4.05860761       6.85398817       3.13045176
Si       4.02863113       6.64322103       0.69193018
Si       8.54695600       4.03062909       7.69628591
Si      -0.50494491       4.15869240       1.81209655
Si      -2.89324370       7.90630928       9.53198823
Si      -1.17228903       2.16408296       3.01071570
Si       5.36290876       6.14593171       9.38397696
Si       3.06414419       2.47281279       7.28891410
Si      -0.33947851       3.77505133       5.43090708
Si       0.86314911       5.80516184       5.95416918
Si       4.00795097       0.51591055       1.15183132
Si       6.96584303       4.06980097       4.67273996
Si       2.03781424       6.04993443       3.91782882
24
Lattice="9.511490444365972 0.7388067614386657 0.15666533570860028 -3.7346698275444576 5.947510911694098 1.2489327163107948 -0.23579195323251237 1.3448172548287816 8.603306358100719" Properties=species:S:1:pos:R:3 unique_starting_index=90 config_type=initial n_minim_iter=15 stress="-0.0011733789421898488 0.0005530853361242457 -0.0022646876718025602 0.0005530853361242457 0.0007489677044352363 0.001812064121383256 -0.0022646876718025602 0.001812064121383256 -0.0032199055532744474" pbc="T T T"
Si       6.91201674       0.82371371       5.41314853
Si       1.40645143       2.99713333       0.92077574
Si       6.16064003       5.63210307       3.12782486
Si       1.86904442       0.90693240       2.10240617
Si       4.68000883       3.85633979       8.49048253
Si      -1.88149720       5.29242668       8.35931354
Si       0.98006651       1.97536244       4.24765702
Si       2.50188733       4.74173412       7.69809133
Si      -1.05907861       6.87890303       6.82301723
Si       5.95668276       2.77957659       6.57166562
Si       1.71536560       3.87608957       3.11713589
Si       4.08999162       6.87656450       3.18854173
Si       4.03755794       6.65383558       0.77428833
Si       8.62816373       4.06140708       7.74495692
Si      -0.47797476       4.13325283       1.80707311
Si      -2.82417446       7.98624520       9.58352194
Si      -1.14512726       2.14931555       3.04306940
Si       5.42359425       6.19784019       9.43900969
Si       3.13867754       2.46326099       7.28025915
Si      -0.29007138       3.82866008       5.41747438
Si       0.94215203       5.83854154       5.99043114
Si       4.01916797       0.53332686       1.17029519
Si       6.99921142       4.11185304       4.76892542
Si       2.03398114       6.04013934       3.92225318
24
Lattice="9.528770856403716 0.7400439220977082 0.22026310121500753 -3.7315794342777515 5.925858968253156 1.210413580469599 -0.17827155881343199 1.3189695777357886 8.622377725033743" Properties=species:S:1:pos:R:3 unique_starting_index=90 config_type=initial n_minim_iter=16 stress="0.00044463252178676276 0.00037166447199876647 0.000657082462383386 0.00037166447199876647 0.0010259225130777028 -0.00028997544345029595 0.000657082462383386 -0.00028997544345029595 0.00015883668821813706" pbc="T T T"
Si       6.95012455       0.81127752       5.47166334
Si       1.42625926       2.99814592       0.92747398
Si       6.18174683       5.61880594       3.16672534
Si       1.88698187       0.89200108       2.13688555
Si       4.75457242       3.83412402       8.54568875
Si      -1.82713439       5.26945660       8.36144913
Si       1.01792893       1.95688384       4.26615645
Si       2.55793715       4.71572427       7.70581569
Si      -1.01263375       6.84577584       6.82342197
Si       5.98786082       2.75913026       6.61709632
Si       1.74401416       3.85394397       3.11729813
Si       4.12729291       6.84880611       3.19888738
Si       4.06300835       6.62194586       0.80293031
Si       8.69213880       4.02367617       7.82254193
Si      -0.46413417       4.11713645       1.78972352
Si      -2.77040604       7.94873961       9.55426871
Si      -1.12247144       2.11419793       3.03960125
Si       5.49935624       6.14992063       9.49225545
Si       3.17920374       2.43679466       7.31840559
Si      -0.25524667       3.80055342       5.40183573
Si       0.99236765       5.80365962       6.00429459
Si       4.04005698       0.52896196       1.18220641
Si       7.04282413       4.10349783       4.82381281
Si       2.06199773       6.01073649       3.93338366
24
Lattice="9.531441562515752 0.7394338225235416 0.24735543152288186 -3.728220460715421 5.90641190080712 1.2095739323299237 -0.15465236484589734 1.323607469700328 8.647565796786417" Properties=species:S:1:pos:R:3 unique_starting_index=90 config_type=initial n_minim_iter=17 stress="0.0005909967496658441 -0.0001759890089945031 0.0003402926362595846 -0.0001759890089945031 -0.0003724150791357588 -0.0005687618369881624 0.0003402926362595846 -0.0005687618369881624 0.0009392881961850121" pbc="T T T"
Si       6.96510892       0.80698435       5.49416502
Si       1.45170500       3.00871883       0.94900337
Si       6.18571361       5.60159314       3.19013102
Si       1.88584039       0.89431903       2.15504287
Si       4.76578340       3.84465094       8.58482045
Si      -1.80111570       5.24469826       8.39044713
Si       1.01792248       1.94555682       4.28814395
Si       2.59038763       4.69591412       7.72556199
Si      -1.00464236       6.81622958       6.84574063
Si       6.00883082       2.74534373       6.66622409
Si       1.75674458       3.83713061       3.13898054
Si       4.13677267       6.83643261       3.22975138
Si       4.06357093       6.60459924       0.83373158
Si       8.72272154       4.01353929       7.86062398
Si      -0.46021276       4.10265495       1.79390113
Si      -2.73118504       7.95982051       9.60865704
Si      -1.11849046       2.10903706       3.05701369
Si       5.52707395       6.14548626       9.53622801
Si       3.21000781       2.42335864       7.33918495
Si      -0.24166263       3.80567548       5.41179963
Si       1.02169022       5.80187660       6.02907479
Si       4.03459270       0.52296030       1.18562084
Si       7.05849349       4.10471832       4.86988564
Si       2.06618779       5.99363370       3.93677577
24
Lattice="9.534258782789609 0.749317752913213 0.31565360691023386 -3.7118191530604947 5.868836443462763 1.2072425067933803 -0.0943787897568613 1.3435051939387306 8.67935713904714" Properties=species:S:1:pos:R:3 unique_starting_index=90 config_type=initial n_minim_iter=18 stress="-8.075986687535395e-05 -0.0013833582475542465 0.0002222879068585063 -0.0013833582475542465 -0.0026055626350364874 -0.0009216756165180136 0.0002222879068585063 -0.0009216756165180136 0.0008389151598976554" pbc="T T T"
Si       6.99090243       0.82981510       5.53435353
Si       1.52431194       3.03059501       0.99662629
Si       6.20040543       5.58753714       3.24903124
Si       1.89179129       0.89960450       2.19420531
Si       4.80876530       3.88510457       8.65957251
Si      -1.73337930       5.21740116       8.43586142
Si       1.03362157       1.92851206       4.32754300
Si       2.66883824       4.66778651       7.74795017
Si      -0.96157412       6.77482579       6.88123379
Si       6.04665345       2.73301856       6.76252365
Si       1.79686037       3.81143519       3.17569188
Si       4.15351993       6.82034513       3.29993535
Si       4.06804553       6.57115107       0.90101277
Si       8.78342652       4.01731557       7.92493076
Si      -0.44361036       4.07525747       1.80212436
Si      -2.63393488       8.00246746       9.69389884
Si      -1.09775710       2.09348083       3.09744854
Si       5.60386965       6.14024968       9.62888455
Si       3.27599549       2.42003158       7.37865417
Si      -0.20593230       3.82225002       5.42265586
Si       1.09058962       5.80301520       6.07687520
Si       4.03064793       0.51886012       1.18985947
Si       7.09833416       4.12693137       4.96845596
Si       2.08710371       5.96749566       3.94260769
24
Lattice="9.542795609726358 0.8004906771269359 0.3773884758268348 -3.672260192150651 5.829864458970133 1.2229080374998806 -0.036980809130465205 1.3886500053470308 8.691845631829858" Properties=species:S:1:pos:R:3 unique_starting_index=90 config_type=initial n_minim_iter=19 stress="-0.0006939603721201627 -0.001119783732778645 0.00019671604623579993 -0.001119783732778645 -0.0026891239227903444 -0.0005465603514296342 0.00019671604623579993 -0.0005465603514296342 0.00021168589381997632" pbc="T T T"
Si       7.00475106       0.92339704       5.55914417
Si       1.62384902       3.05565980       1.04215674
Si       6.23806702       5.62703092       3.31660830
Si       1.90823681       0.90922378       2.23274333
Si       4.87683626       3.97752642       8.72911551
Si      -1.65782969       5.23769251       8.47845822
Si       1.07059297       1.93228457       4.35962395
Si       2.75739124       4.68347963       7.75202740
Si      -0.87847861       6.77674274       6.92652276
Si       6.06960382       2.77524341       6.84079976
Si       1.86197799       3.81092903       3.20477922
Si       4.18482201       6.83544148       3.37830445
Si       4.09876994       6.55159093       0.96932554
Si       8.83537231       4.08714176       7.96613263
Si      -0.40741783       4.05503177       1.81967587
Si      -2.52092308       8.07760839       9.75835436
Si      -1.06365272       2.07324362       3.14660352
Si       5.70584995       6.16573818       9.72692501
Si       3.33234089       2.47227800       7.41589973
Si      -0.16313742       3.84976942       5.42947320
Si       1.16812791       5.82026231       6.12579804
Si       4.03986968       0.53746511       1.18337412
Si       7.15257463       4.20160662       5.05886861
Si       2.13416656       5.96832788       3.96111171
24
Lattice="9.543826494089995 0.8748541506566667 0.3896686312069262 -3.6240276139958882 5.830994386537922 1.259189633607765 -0.02161466550392831 1.4513703675726903 8.66433922042088" Properties=species:S:1:pos:R:3 unique_starting_index=90 config_type=initial n_minim_iter=20 stress="-0.00027671575353923884 0.0009919838226552932 -0.0007936286899831091 0.0009919838226552932 0.002013406647789918 0.0011280220758585037 -0.0007936286899831091 0.0011280220758585037 -0.0015063095190950091" pbc="T T T"
Si       6.98402995       1.06395011       5.53737639
Si       1.69918932       3.08063528       1.05704104
Si       6.27784762       5.72790235       3.35606988
Si       1.92910188       0.92507004       2.24153000
Si       4.92649424       4.09885881       8.74493994
Si      -1.61422677       5.32078737       8.48934536
Si       1.11084480       1.97225927       4.35969408
Si       2.79763651       4.77340384       7.72841731
Si      -0.79431957       6.86559813       6.95810888
Si       6.05198067       2.87647486       6.84609926
Si       1.91802201       3.85343116       3.20992882
Si       4.21192925       6.91169302       3.42133306
Si       4.13484121       6.58268356       0.99722169
Si       8.83071776       4.21189374       7.95127105
Si      -0.36053623       4.06047666       1.84033421
Si      -2.45981772       8.19516371       9.76405359
Si      -1.03599794       2.06630022       3.17928549
Si       5.75972599       6.23733640       9.76778094
Si       3.34379538       2.56446579       7.40993734
Si      -0.13603042       3.89730484       5.42101471
Si       1.20595845       5.86884263       6.13711448
Si       4.05554716       0.57931680       1.17143441
Si       7.17653266       4.31105591       5.08364849
Si       2.16860474       6.01918551       3.98750283
24
Lattice="9.534051701098914 0.937011149853187 0.4891397020660121 -3.5663077887572308 5.802710488623818 1.2669249757323942 0.07105405671126933 1.503754144388422 8.700797055560345" Properties=species:S:1:pos:R:3 unique_starting_index=90 config_type=initial n_minim_iter=21 stress="0.0020668735395035485 0.0021548731849573917 0.00018841029887744 0.0021548731849573917 0.003659384017446868 4.156004565659497e-05 0.00018841029887744 4.156004565659497e-05 -0.00018802304657959584" pbc="T T T"
Si       7.00545039       1.17405877       5.59552343
Si       1.80667525       3.12801357       1.10936596
Si       6.32660141       5.77625889       3.45319517
Si       1.95379326       0.94087260       2.28680801
Si       5.01415435       4.21284922       8.86545148
Si      -1.48552577       5.32709104       8.55175864
Si       1.16323493       1.98833361       4.40519209
Si       2.91553264       4.82420719       7.76997765
Si      -0.67872876       6.89640405       7.02843897
Si       6.09778394       2.94160983       6.97741440
Si       2.00105812       3.85807438       3.27004843
Si       4.26634378       6.97157738       3.52608970
Si       4.15830812       6.58446449       1.08133849
Si       8.89583573       4.28284012       8.06941305
Si      -0.29429355       4.02949216       1.85999986
Si      -2.28326669       8.33146286       9.88060292
Si      -0.99701063       2.05011973       3.23224665
Si       5.87336616       6.28087422       9.91629374
Si       3.44846474       2.59542744       7.45091879
Si      -0.05893543       3.94988697       5.43276213
Si       1.30984593       5.90430581       6.18538362
Si       4.05046604       0.60390184       1.19459211
Si       7.22069893       4.39787995       5.22316279
Si       2.20073494       6.02890315       4.02401794
