18
Lattice="7.836200463121817 -0.6188609373179874 -0.05745055086488288 -4.332910534173705 6.558575520706856 0.057450550864737625 -2.9257012620149716 -2.277389742041941 8.764262081021826" Properties=species:S:1:pos:R:3 unique_starting_index=64 config_type=initial n_minim_iter=1 energy=-2929.0704731081864 free_energy=-2929.0704731081864 pbc="T T T"
Si      -0.69995689       3.49260662       5.57852142
Si       1.98568066      -0.24794538       1.16766510
Si      -1.51690297       0.65236749       3.33953174
Si       1.15041183      -0.43620817       7.69293751
Si       5.93136809      -2.94985289       5.78741788
Si       6.49936631       3.62409118       1.43401211
Si      -3.51466426       3.90618791       4.33890853
Si       0.26191843       2.01529806      -0.07194778
Si      -2.59897188       2.61205692       2.62183071
Si      -1.08817130      -0.43735114       6.97523648
Si      -3.67587168       2.15750254       6.15931317
Si       1.71431676       3.00242896       1.74845685
Si       2.27497551       4.22260258       3.66445272
Si      -4.47247125       1.07648866       8.07530904
Si       3.47172210       1.53083661       1.17377121
Si      -1.53771486       1.33146200       5.58462752
Si      -2.68216003       4.25193305       6.48704217
Si       0.36211475       1.11943886       2.07618586
18
Lattice="7.825246909011086 -0.607698403458789 -0.03798053350072735 -4.317841902874514 6.554389966910338 0.03798053350058192 -2.9045636496584377 -2.294558912783679 8.74682404030969" Properties=species:S:1:pos:R:3 unique_starting_index=64 config_type=initial n_minim_iter=2 stress="-0.0010108388849162943 0.00012688800881104404 0.00014580474783899874 0.00012688800881104404 -0.0008705439125861646 -8.599677602778646e-05 0.00014580474783899874 -8.599677602778646e-05 -0.0012520136908569517" pbc="T T T"
Si      -0.68040510       3.48478206       5.56328117
Si       1.98594242      -0.24710496       1.17087888
Si      -1.50612237       0.64517186       3.32986221
Si       1.16701711      -0.44516494       7.68428396
Si       5.93356412      -2.95044383       5.79621161
Si       6.49996901       3.63243549       1.44178985
Si      -3.49438081       3.89616360       4.31829330
Si       0.26445933       2.01656243      -0.07410898
Si      -2.58582178       2.60602585       2.60814116
Si      -1.07143881      -0.44894506       6.96256291
Si      -3.65376994       2.14477524       6.13792208
Si       1.72010295       3.00340979       1.74551979
Si       2.28566102       4.22216692       3.65802668
Si      -4.44675945       1.06015895       8.05042897
Si       3.47196935       1.53411528       1.17834297
Si      -1.52030396       1.32247045       5.57074525
Si      -2.65639517       4.24072573       6.46469898
Si       0.36834299       1.11647845       2.07229670
18
Lattice="7.832741228307694 -0.6033526245144892 -0.02783649079993549 -4.317664510598894 6.563051326407139 0.027836490799789802 -2.8982010147926096 -2.30707763123233 8.755951039610789" Properties=species:S:1:pos:R:3 unique_starting_index=64 config_type=initial n_minim_iter=3 stress="0.0007543884914837051 0.00037185258074777077 0.0007188786626276766 0.00037185258074777077 0.001165530947070666 -0.0004240002349543407 0.0007188786626276766 -0.0004240002349543407 0.0008221941088486774" pbc="T T T"
Si      -0.67086413       3.48597730       5.56679224
Si       1.99007832      -0.24760094       1.17489847
Si      -1.50316512       0.64185611       3.33174831
Si       1.17827820      -0.45023528       7.69580559
Si       5.94528894      -2.95604284       5.81276786
Si       6.51128501       3.64197682       1.44871058
Si      -3.49006181       3.89739424       4.31660631
Si       0.26603776       2.02061942      -0.07528746
Si      -2.58350202       2.60758385       2.60633078
Si      -1.06475149      -0.45581551       6.97038805
Si      -3.64884823       2.14243446       6.13947269
Si       1.72509858       3.00866723       1.74757892
Si       2.29365269       4.22869951       3.66199412
Si      -4.44150418       1.05457920       8.05388788
Si       3.47766317       1.53727882       1.18372380
Si      -1.51321195       1.32053171       5.57561757
Si      -2.64690015       4.24212748       6.46656700
Si       0.37227594       1.11592276       2.07467324
18
Lattice="7.813593791637165 -0.594430196602679 -0.020250112917802755 -4.3005919918069955 6.550610942450291 0.020250112917657104 -2.885606022527586 -2.3121353763932206 8.749651488109068" Properties=species:S:1:pos:R:3 unique_starting_index=64 config_type=initial n_minim_iter=4 stress="0.0005482665325454755 -0.0020697643516786406 0.0012426287208307152 -0.0020697643516786406 -0.0017401887373502502 -0.0007329120990562155 0.0012426287208307152 -0.0007329120990562155 0.00037501111018980386" pbc="T T T"
Si      -0.64162342       3.46672823       5.55834771
Si       2.00520049      -0.25688833       1.17339691
Si      -1.49849456       0.61932604       3.32943600
Si       1.19697928      -0.44148998       7.69413669
Si       5.94329829      -2.95153416       5.81073530
Si       6.50757735       3.63608729       1.44603461
Si      -3.47880070       3.88515744       4.31302863
Si       0.26632415       2.02367454      -0.07192217
Si      -2.57409491       2.61087804       2.59882302
Si      -1.06635935      -0.46370976       6.96352371
Si      -3.64178940       2.15203541       6.13015721
Si       1.70424013       3.00483453       1.74520641
Si       2.26191671       4.22662748       3.65176083
Si      -4.44124898       1.07284795       8.03671163
Si       3.46671566       1.51620240       1.19958325
Si      -1.48626685       1.32980175       5.58453405
Si      -2.60926473       4.23790933       6.45893018
Si       0.37830505       1.09201636       2.07397938
18
Lattice="7.787947880330144 -0.5470841975757487 -0.04620643206789836 -4.246748305428014 6.551073357574339 0.046206432067751484 -2.919843338690979 -2.3241617813950963 8.739785623106041" Properties=species:S:1:pos:R:3 unique_starting_index=64 config_type=initial n_minim_iter=5 stress="-0.000696361592090384 0.0003993458829172928 -0.0001396617672386856 0.0003993458829172928 -0.00025482089711631396 8.237359821882603e-05 -0.0001396617672386856 8.237359821882603e-05 -1.670124231632828e-05" pbc="T T T"
Si      -0.62716726       3.48369269       5.55623751
Si       2.00164361      -0.24806142       1.16324148
Si      -1.50252602       0.61262350       3.33098393
Si       1.17095302      -0.41705915       7.67777353
Si       5.89428633      -2.91667869       5.77424542
Si       6.51149942       3.69226588       1.42745582
Si      -3.46100355       3.88756794       4.32602162
Si       0.27712086       2.03661900      -0.06697441
Si      -2.55888452       2.61350243       2.60682567
Si      -1.09123867      -0.46063134       6.95361527
Si      -3.64072111       2.15794101       6.13471754
Si       1.70388429       3.03072856       1.74172151
Si       2.25759312       4.26616771       3.64329573
Si      -4.45404309       1.07562372       8.03629176
Si       3.46144682       1.53909652       1.19447085
Si      -1.48495014       1.34145847       5.58746687
Si      -2.58638778       4.25460151       6.46428113
Si       0.37906059       1.09360538       2.07128511
18
Lattice="7.811931917817097 -0.5371634919912295 -0.05213415544778333 -4.249669955613463 6.576863247331064 0.052134155447635507 -2.9396579786390733 -2.3365416301257387 8.689402767173343" Properties=species:S:1:pos:R:3 unique_starting_index=64 config_type=initial n_minim_iter=6 stress="0.0031972729235376727 -0.0007164272452383877 -0.00047443011439241104 -0.0007164272452383877 0.0024051481082020586 0.0002798225770625323 -0.00047443011439241104 0.0002798225770625323 -0.003312291354533403" pbc="T T T"
Si      -0.62100829       3.49632417       5.52317906
Si       2.01546811      -0.24841262       1.15241060
Si      -1.51165475       0.61783833       3.31775012
Si       1.16405721      -0.41282259       7.63638443
Si       5.91853595      -2.92049790       5.73468202
Si       6.54555199       3.70983136       1.41604772
Si      -3.47729088       3.90633091       4.30716552
Si       0.27471933       2.05294555      -0.06360294
Si      -2.56143832       2.62402232       2.59438738
Si      -1.09959622      -0.46471563       6.91302169
Si      -3.65621455       2.18292898       6.10084405
Si       1.69641894       3.04334855       1.73007559
Si       2.25427723       4.28963186       3.61874346
Si      -4.47701940       1.09173359       7.98951192
Si       3.47526064       1.54776826       1.18539971
Si      -1.48669294       1.34973382       5.55616817
Si      -2.58302303       4.27894597       6.42971897
Si       0.38128237       1.09003262       2.05895050
18
Lattice="7.7154126752641945 -0.4368012778106351 -0.05217348470039953 -4.115138302655264 6.540949843558202 0.052173484700249954 -2.9358269038885676 -2.382235640937959 8.77332550104631" Properties=species:S:1:pos:R:3 unique_starting_index=64 config_type=initial n_minim_iter=7 stress="0.0024321771491438507 -0.00011641473242081244 -0.0007671789859691222 -0.00011641473242081244 0.0023034620576479425 0.0004524881418987543 -0.0007671789859691222 0.0004524881418987543 0.0016306907854678244" pbc="T T T"
Si      -0.53768775       3.46960306       5.56662103
Si       2.02899048      -0.23537580       1.15387154
Si      -1.49757104       0.61573284       3.37062494
Si       1.12636975      -0.39679543       7.73120095
Si       5.87791930      -2.85874614       5.79477183
Si       6.55621421       3.75261578       1.43419582
Si      -3.42466001       3.88681832       4.35674226
Si       0.26708478       2.08935336      -0.05600723
Si      -2.48205707       2.59994053       2.61891134
Si      -1.08645852      -0.49520224       6.97948735
Si      -3.59398730       2.22122490       6.15269376
Si       1.64283514       3.04338906       1.73994427
Si       2.22203090       4.31726338       3.63781278
Si      -4.42861545       1.09800659       8.05056227
Si       3.45994022       1.57639844       1.19724474
Si      -1.43097390       1.34071064       5.60999423
Si      -2.45416637       4.27863103       6.49086046
Si       0.39372615       1.05044189       2.07811097
18
Lattice="7.580532665531749 -0.29207589758065217 -0.030822040054586042 -3.9232217536868887 6.49292806787042 0.030822040054433817 -2.909716250277874 -2.4628080076636967 8.81369467499384" Properties=species:S:1:pos:R:3 unique_starting_index=64 config_type=initial n_minim_iter=8 stress="-0.001461834210635377 0.0011642090766633257 -0.0003153063744132166 0.0011642090766633257 -0.00017461501846522214 0.0001859701557215037 -0.0003153063744132166 0.0001859701557215037 0.0004892956478294932" pbc="T T T"
Si      -0.38966962       3.42307226       5.57262062
Si       2.06083141      -0.22975519       1.15036227
Si      -1.46447853       0.58888830       3.40962944
Si       1.11148935      -0.38069253       7.80106575
Si       5.83146235      -2.78423807       5.84711689
Si       6.57995159       3.82185209       1.45568057
Si      -3.33066659       3.85154709       4.37415618
Si       0.26293351       2.13680710      -0.04810218
Si      -2.37178768       2.57143938       2.62029875
Si      -1.06254948      -0.54584058       7.01173507
Si      -3.49461582       2.27225630       6.16630775
Si       1.56575658       3.04438123       1.74404939
Si       2.17619436       4.35905351       3.62786542
Si      -4.34983356       1.10195713       8.05012378
Si       3.44341989       1.61364709       1.22022669
Si      -1.33403371       1.32120183       5.64248504
Si      -2.25601036       4.27821387       6.50816718
Si       0.40946755       0.98987278       2.08590882
18
Lattice="7.466608669585252 -0.19943935469584803 0.033346524765395714 -3.787030609783564 6.438044752989023 -0.03334652476554943 -2.8277888098164454 -2.5365727328848413 8.864551771730344" Properties=species:S:1:pos:R:3 unique_starting_index=64 config_type=initial n_minim_iter=9 stress="-0.00563385111138842 0.0011722325780227944 0.0006523292943908055 0.0011722325780227944 -0.004337760656190824 -0.00038474889917890687 0.0006523292943908055 -0.00038474889917890687 -0.0010366864011730178" pbc="T T T"
Si      -0.22023382       3.34846375       5.57646904
Si       2.11017694      -0.25874232       1.16086642
Si      -1.41267589       0.55004302       3.44211865
Si       1.15455032      -0.39779855       7.89106780
Si       5.83745657      -2.76652837       5.95491046
Si       6.60561816       3.83635517       1.50596131
Si      -3.23357739       3.81154351       4.36072704
Si       0.24699125       2.15439286      -0.05487559
Si      -2.28558544       2.53783324       2.60836798
Si      -1.00743045      -0.59558682       7.05731713
Si      -3.38745429       2.31538146       6.17983757
Si       1.48193590       3.01293274       1.76423495
Si       2.13739544       4.36198271       3.62479459
Si      -4.25097589       1.08904810       8.04039722
Si       3.44287992       1.64067500       1.25835477
Si      -1.23775605       1.26315036       5.67395739
Si      -2.08725430       4.25548678       6.50763488
Si       0.41307926       0.93637930       2.09203226
18
Lattice="7.481536920572159 -0.2476029542652012 0.0939405370244289 -3.836404425586989 6.427807013296352 -0.09394053702458115 -2.75193212275209 -2.54195479695135 8.876483192428038" Properties=species:S:1:pos:R:3 unique_starting_index=64 config_type=initial n_minim_iter=10 stress="-0.0033704633570137655 -0.002263563619999327 0.0012717878542263794 -0.002263563619999327 -0.005873194690042008 -0.0007501103830693025 0.0012717878542263794 -0.0007501103830693025 -0.0014166041598723145" pbc="T T T"
Si      -0.16542794       3.30510238       5.57016420
Si       2.14417734      -0.30711839       1.17889288
Si      -1.38405242       0.53154536       3.43484526
Si       1.22997993      -0.44067221       7.92005713
Si       5.90750366      -2.83808565       6.03240466
Si       6.62229489       3.77804446       1.54719280
Si      -3.21770513       3.80888692       4.31520517
Si       0.22653129       2.12039651      -0.07606616
Si      -2.30459105       2.52679902       2.58936066
Si      -0.96157645      -0.60038798       7.07457252
Si      -3.36971619       2.30927069       6.18041171
Si       1.46540165       2.97897466       1.78914038
Si       2.14364339       4.32620198       3.63471505
Si      -4.22062021       1.06388093       8.02598637
Si       3.46657180       1.64045287       1.27835980
Si      -1.23008042       1.20551289       5.66963113
Si      -2.10263533       4.22537589       6.47427347
Si       0.40152549       0.94301774       2.08300215
18
Lattice="7.465632713519425 -0.19758494078424735 0.09946983171641546 -3.7849354998292357 6.4380878282397305 -0.09946983171656947 -2.7572467273034285 -2.5794577900633646 8.884876413826715" Properties=species:S:1:pos:R:3 unique_starting_index=64 config_type=initial n_minim_iter=11 stress="-0.0005134245003528055 -0.0005333150327509863 0.0008138645748837169 -0.0005333150327509863 -0.0011030895007300972 -0.0004800236658997822 0.0008138645748837169 -0.0004800236658997822 -0.00036999216670720195" pbc="T T T"
Si      -0.11085044       3.30393394       5.56918397
Si       2.16631076      -0.31055705       1.17648068
Si      -1.37732587       0.52179013       3.44445396
Si       1.23116243      -0.43558179       7.93662708
Si       5.91046690      -2.82774243       6.04728620
Si       6.66085063       3.82448819       1.55511307
Si      -3.18929698       3.82191010       4.31351978
Si       0.22358343       2.13299424      -0.07918351
Si      -2.28030995       2.52585289       2.59184996
Si      -0.95961018      -0.61492275       7.08402308
Si      -3.35100147       2.33353043       6.19273437
Si       1.44793005       2.99461931       1.80003108
Si       2.14491049       4.36488382       3.63642681
Si      -4.21300075       1.06059531       8.02913010
Si       3.47787717       1.67736505       1.28076791
Si      -1.21605550       1.19429830       5.67347120
Si      -2.05655133       4.24436253       6.46578485
Si       0.40191051       0.93726091       2.07308156
18
Lattice="7.47564279828124 -0.13596406424196097 0.07211172619451878 -3.735849947638547 6.476661689712413 -0.07211172619467546 -2.8121335564768066 -2.6146100131823578 8.903066285508999" Properties=species:S:1:pos:R:3 unique_starting_index=64 config_type=initial n_minim_iter=12 stress="0.00813737223882486 0.002321315795748137 -0.002469085839007809 0.002321315795748137 0.01070395783179955 0.0014562860608981962 -0.002469085839007809 0.0014562860608981962 0.0025875104918424326" pbc="T T T"
Si      -0.07218331       3.32377261       5.57977298
Si       2.20010494      -0.30560908       1.16429570
Si      -1.39032875       0.51684257       3.45355041
Si       1.20676295      -0.40857403       7.94113942
Si       5.91106537      -2.81514284       6.04060338
Si       6.73164743       3.90482893       1.55301438
Si      -3.15815972       3.89490461       4.32235516
Si       0.20721422       2.11881432      -0.09312212
Si      -2.26964380       2.53273926       2.62131887
Si      -0.98291480      -0.61435486       7.10890788
Si      -3.37443147       2.35593795       6.26307690
Si       1.44943227       3.05266986       1.84759962
Si       2.17071803       4.45011793       3.67954248
Si      -4.24846156       1.04857968       8.09501976
Si       3.49485559       1.77112699       1.25565139
Si      -1.26325129       1.18588370       5.67112867
Si      -2.06177997       4.29148264       6.43288078
Si       0.39059124       0.96742578       2.01740350
18
Lattice="7.39275572899625 -0.14333460589013616 0.12946735409351784 -3.702198065424434 6.400555566684823 -0.12946735409367202 -2.7144942080570806 -2.6159404806813655 8.972286296912323" Properties=species:S:1:pos:R:3 unique_starting_index=64 config_type=initial n_minim_iter=13 stress="-0.0019723758074026558 0.002295272034210978 -0.00010117727021096703 0.002295272034210978 0.0005654142450113639 5.9675142095304314e-05 -0.00010117727021096703 5.9675142095304314e-05 0.001662534603295714" pbc="T T T"
Si      -0.02549062       3.23090526       5.61180731
Si       2.21370708      -0.30456206       1.19039784
Si      -1.35775317       0.48719348       3.45749426
Si       1.25584772      -0.42708885       8.00837108
Si       5.92162084      -2.81824123       6.16015164
Si       6.68285465       3.81796402       1.60927481
Si      -3.07608663       3.88112396       4.30505103
Si       0.16871992       2.05063388      -0.11635845
Si      -2.22093277       2.48929542       2.62388519
Si      -0.91395068      -0.64031675       7.17476202
Si      -3.31678232       2.29642815       6.32683701
Si       1.43914190       3.02798911       1.90542753
Si       2.16806837       4.38310597       3.75285994
Si      -4.15006877       1.00286362       8.17426941
Si       3.45058294       1.76870387       1.27465021
Si      -1.24152258       1.14534544       5.69605968
Si      -2.00868689       4.21647730       6.39113325
Si       0.39165775       0.95422939       1.96972378
18
Lattice="7.418771314884216 -0.18470019347860642 0.1326571502077015 -3.750986742425227 6.4033101160392105 -0.1326571502078549 -2.7070989796651275 -2.5942808516101863 8.946146465537419" Properties=species:S:1:pos:R:3 unique_starting_index=64 config_type=initial n_minim_iter=14 stress="-0.0006739342857669108 0.0002948774066252054 4.010485656691283e-05 0.0002948774066252054 -0.00034790018694979354 -2.3654156801574255e-05 4.010485656691283e-05 -2.3654156801574255e-05 -0.0008371507978288193" pbc="T T T"
Si      -0.05463769       3.21602293       5.59763489
Si       2.22193989      -0.30336573       1.19089024
Si      -1.36645600       0.48519816       3.43199329
Si       1.27008877      -0.42836001       7.97139510
Si       5.95024288      -2.83832525       6.14741231
Si       6.67480094       3.77387390       1.60801051
Si      -3.09141678       3.90097723       4.28511859
Si       0.15323813       2.02293234      -0.12162606
Si      -2.24088238       2.49394358       2.61411386
Si      -0.91096519      -0.63495933       7.15351566
Si      -3.34614956       2.27295939       6.32239307
Si       1.45478276       3.03353240       1.91564842
Si       2.16524008       4.35681259       3.76781268
Si      -4.16050929       1.01096165       8.17455733
Si       3.43876877       1.75099746       1.27226578
Si      -1.26382569       1.15715309       5.67901044
Si      -2.04167595       4.21106760       6.34553175
Si       0.38974159       0.95420507       1.93878709
18
Lattice="7.400259185417678 -0.17804727002018778 0.15159748114897395 -3.736207795150446 6.390327703113304 -0.15159748114912838 -2.6817007459974693 -2.6049952529660323 8.957437736218044" Properties=species:S:1:pos:R:3 unique_starting_index=64 config_type=initial n_minim_iter=15 stress="-0.0006433471283068616 0.00021447211615644015 -8.44024411949063e-06 0.00021447211615644015 -0.0004062139280638899 4.978121727550314e-06 -8.44024411949063e-06 4.978121727550314e-06 -9.52662492576996e-05" pbc="T T T"
Si      -0.01307099       3.18110021       5.59759036
Si       2.25065872      -0.31416364       1.19467023
Si      -1.35803328       0.47373290       3.43270011
Si       1.28764092      -0.43221494       7.98721772
Si       5.97530191      -2.84504791       6.18065824
Si       6.68563221       3.75089683       1.62614063
Si      -3.07476475       3.90872427       4.27391148
Si       0.13255957       2.01329451      -0.12900865
Si      -2.22672792       2.48758147       2.60794356
Si      -0.89510602      -0.64629949       7.16246117
Si      -3.33367657       2.28451187       6.33501311
Si       1.42875188       3.02571079       1.93209298
Si       2.14000264       4.34086096       3.78148811
Si      -4.14053729       1.02575320       8.18440824
Si       3.43306490       1.75078503       1.28464967
Si      -1.24817742       1.14723456       5.68756980
Si      -2.00031702       4.21019950       6.32296818
Si       0.38855638       0.92711272       1.92004805
18
Lattice="7.418851937150251 -0.22294224011000552 0.1777807525321475 -3.7844939662220294 6.384878442649654 -0.17778075253230063 -2.6453829339921073 -2.592486961097074 8.949242903428287" Properties=species:S:1:pos:R:3 unique_starting_index=64 config_type=initial n_minim_iter=16 stress="0.0017201935884829601 -0.001043836258159123 0.0003642252735764339 -0.001043836258159123 0.000566065784535079 -0.00021482290350363073 0.0003642252735764339 -0.00021482290350363073 0.0007703211413782189" pbc="T T T"
Si       0.01467940       3.13967475       5.58563852
Si       2.29147660      -0.34710910       1.19990744
Si      -1.35430129       0.48375369       3.42126034
Si       1.30813194      -0.45652265       7.98477217
Si       6.04174405      -2.88658538       6.21325306
Si       6.69698174       3.67869452       1.64974123
Si      -3.11072502       3.92138394       4.24473613
Si       0.09521943       2.00993917      -0.14099494
Si      -2.24923226       2.48598105       2.58374265
Si      -0.87713813      -0.64202344       7.14725448
Si      -3.34145392       2.30764472       6.31903547
Si       1.39588139       2.99262354       1.93330439
Si       2.08192719       4.27187275       3.79018285
Si      -4.12908992       1.08831419       8.17591392
Si       3.43649230       1.71926521       1.30201036
Si      -1.23976493       1.13784230       5.68774143
Si      -1.96717290       4.21933559       6.29600572
Si       0.38773399       0.86498420       1.91027465
18
Lattice="7.429132400768561 -0.2763630405609265 0.17154490469911912 -3.836220028085534 6.3680295739304364 -0.17154490469927022 -2.6372995371241985 -2.549897308607017 8.95022171300766" Properties=species:S:1:pos:R:3 unique_starting_index=64 config_type=initial n_minim_iter=17 stress="0.0020751575662676706 -0.0005670892698322425 -0.0015615704699228105 -0.0005670892698322425 0.0014481497491716532 0.0009210264270819241 -0.0015615704699228105 0.0009210264270819241 -0.0018009265806103588" pbc="T T T"
Si       0.01006509       3.12393939       5.58559178
Si       2.30411372      -0.38346296       1.19625338
Si      -1.36396638       0.50308678       3.41220356
Si       1.29571801      -0.46283336       7.97308686
Si       6.05251897      -2.91775012       6.22567682
Si       6.67884171       3.61948866       1.66479351
Si      -3.15119917       3.94257146       4.23363209
Si       0.05819316       1.98710470      -0.15570631
Si      -2.29274562       2.47989750       2.58543816
Si      -0.88368467      -0.60641417       7.14632147
Si      -3.35775301       2.30659559       6.32929236
Si       1.39001228       2.95939034       1.93995395
Si       2.02486387       4.19620160       3.83187609
Si      -4.13301740       1.15260089       8.22121449
Si       3.42793599       1.71053749       1.29062115
Si      -1.27881054       1.12728870       5.67995956
Si      -1.96844101       4.22301743       6.27173469
Si       0.38499676       0.81630745       1.88239629
18
Lattice="7.390845366104031 -0.30177238490814917 0.2138211987180952 -3.8399334768269475 6.322228459293302 -0.213821198718244 -2.5674109583643556 -2.5431268011288104 9.003606479440254" Properties=species:S:1:pos:R:3 unique_starting_index=64 config_type=initial n_minim_iter=18 stress="-0.0008186438936220737 0.0013025046677702958 -0.0007613748787817665 0.0013025046677702958 0.0006214831762071956 0.00044906483426848404 -0.0007613748787817665 0.00044906483426848404 -7.166694489759177e-05" pbc="T T T"
Si       0.07533219       3.06990151       5.60178695
Si       2.32889561      -0.43052801       1.20689431
Si      -1.35019484       0.49018384       3.42489729
Si       1.32947396      -0.47796251       8.03361113
Si       6.08014418      -2.94981360       6.33690918
Si       6.66246699       3.54893384       1.72819534
Si      -3.14090581       3.93689398       4.21991251
Si       0.01405423       1.96475322      -0.17498013
Si      -2.29318855       2.45799508       2.58931081
Si      -0.84892990      -0.60474914       7.19802465
Si      -3.30780390       2.30057567       6.35231553
Si       1.36535924       2.90249911       1.95742289
Si       1.95677218       4.10783193       3.89295307
Si      -4.07653582       1.19982696       8.28784571
Si       3.40941425       1.69847842       1.29933476
Si      -1.26513068       1.09421221       5.69422740
Si      -1.88584165       4.19611778       6.24723409
Si       0.39441381       0.74094376       1.85234145
18
Lattice="7.35664803677906 -0.3376709025404342 0.24983975887333243 -3.8548053922836556 6.2749316620253675 -0.24983975887347826 -2.50212998128384 -2.5255616610701717 9.059345848121566" Properties=species:S:1:pos:R:3 unique_starting_index=64 config_type=initial n_minim_iter=19 stress="-0.004524680172756011 0.0026371114578315684 0.0010149472033768204 0.0026371114578315684 -0.0016089320065067819 -0.0005986237665267707 0.0010149472033768204 -0.0005986237665267707 0.001816061020961158" pbc="T T T"
Si       0.11592865       3.03345381       5.61229594
Si       2.33069566      -0.47515447       1.20754289
Si      -1.34694946       0.47159652       3.44569720
Si       1.36285299      -0.48097654       8.10029000
Si       6.10441285      -2.97984389       6.45271807
Si       6.63587912       3.46819528       1.79812527
Si      -3.14928543       3.91504458       4.22307096
Si      -0.02061725       1.95592612      -0.18168209
Si      -2.29909764       2.44194750       2.60646086
Si      -0.82220268      -0.60098026       7.26105366
Si      -3.24961031       2.29362611       6.35820422
Si       1.34985730       2.82820043       1.95345118
Si       1.87718394       4.01500381       3.94566393
Si      -4.03313201       1.25792857       8.35041697
Si       3.38463775       1.66561174       1.29714084
Si      -1.24768425       1.07533386       5.70189388
Si      -1.80619974       4.16367339       6.23834911
Si       0.41160123       0.66020909       1.83359606
18
Lattice="7.356174340156413 -0.351207515662521 0.23981275372651611 -3.866423020073424 6.2679678263117875 -0.23981275372666166 -2.5078321317627004 -2.5083824852205865 9.065447569074252" Properties=species:S:1:pos:R:3 unique_starting_index=64 config_type=initial n_minim_iter=20 stress="-0.00471175444696645 0.002593716125013001 0.0028091332458949157 0.002593716125013001 -0.0018439867563673248 -0.0016568486702942579 0.0028091332458949157 -0.0016568486702942579 0.003103342653400931" pbc="T T T"
Si       0.08970780       3.07676048       5.58617121
Si       2.28272313      -0.48851730       1.17335381
Si      -1.37037835       0.44243875       3.46922858
Si       1.37394767      -0.44454396       8.12185875
Si       6.10154337      -2.98366733       6.48258017
Si       6.62883356       3.45023468       1.82995001
Si      -3.18910135       3.87500111       4.26732881
Si      -0.00222196       1.99478765      -0.14548860
Si      -2.31278569       2.45406740       2.64507532
Si      -0.84252008      -0.59304347       7.29770548
Si      -3.21025286       2.30883956       6.31091487
Si       1.35819908       2.77103760       1.89809747
Si       1.82702132       4.00914309       3.91702653
Si      -4.06697808       1.29952227       8.32984393
Si       3.37830245       1.62561838       1.26882073
Si      -1.23045403       1.09508530       5.68163814
Si      -1.78998854       4.16225637       6.26905716
Si       0.42329888       0.63134925       1.85623975
18
Lattice="7.384289206426012 -0.4057181886119146 0.2327600690057058 -3.9277315276187776 6.266199755805717 -0.23276006900585056 -2.5077199016126164 -2.4705203736157184 9.01972660913955" Properties=species:S:1:pos:R:3 unique_starting_index=64 config_type=initial n_minim_iter=21 stress="-2.1626731906687535e-05 -0.0010291584312889126 0.001149935806192826 -0.0010291584312889126 -0.0011595258525144451 -0.0006782410959674292 0.001149935806192826 -0.0006782410959674292 -0.0012565671825895497" pbc="T T T"
Si       0.09730000       3.07140483       5.52731384
Si       2.30508479      -0.53875698       1.13383057
Si      -1.39582079       0.43041598       3.45231014
Si       1.38627363      -0.42478499       8.07855348
Si       6.16644892      -3.03019343       6.48340492
Si       6.65364707       3.36798717       1.85716158
Si      -3.26493019       3.88863382       4.26480460
Si      -0.03683900       2.00836847      -0.12867867
Si      -2.35960997       2.46619779       2.64978567
Si      -0.86167715      -0.56625755       7.27602901
Si      -3.22377249       2.35606802       6.26428197
Si       1.32432650       2.71383312       1.87079870
Si       1.72372385       3.96039755       3.89512444
Si      -4.12148978       1.40341658       8.28860771
Si       3.38188088       1.58291166       1.25406769
Si      -1.23854212       1.10252355       5.64755096
Si      -1.78607559       4.19475538       6.22775021
Si       0.41075126       0.56601474       1.83426694
