12
Lattice="2.492063053010934 5.30072264188879e-14 -3.767585447253759e-14 -2.1783739014377394e-13 10.241330252816052 -4.186982477170977e-15 2.430070575387454e-13 -5.1206651264080225 8.86925216748481" Properties=species:S:1:pos:R:3 unique_starting_index=66 config_type=initial n_minim_iter=1 energy=-1952.978440827521 free_energy=-1952.978440827521 pbc="T T T"
Si       1.24999831      -2.63675995       8.88665927
Si       1.24999831       3.89378754       6.70942364
Si       1.24999831      -1.25702757       2.14242142
Si       1.24206474       7.75742509      -0.01740711
Si       1.24206474       1.22687760       2.15982853
Si       1.24206474       6.37769271       6.72683074
Si       0.59832681       0.02987891       4.39518732
Si       0.59832681      -1.32926070       6.64578262
Si       0.59832681       1.29938181       6.69753439
Si       1.89373624       5.09078623       4.47406485
Si       1.89373624       6.44992584       2.22346955
Si       1.89373624       3.82128333       2.17171777
12
Lattice="2.5040561038063363 5.326232363972148e-14 -3.7857169482165216e-14 -2.1839043252064925e-13 10.267330792124957 -2.8809252108467196e-15 2.4362400029870976e-13 -5.133665396062476 8.891769295038419" Properties=species:S:1:pos:R:3 unique_starting_index=66 config_type=initial n_minim_iter=2 stress="0.01103621983793688 9.93147484047776e-17 -8.049593911047377e-17 9.93147484047776e-17 0.0050949420723116695 -5.73063095929768e-17 -8.049593911047377e-17 -5.73063095929768e-17 0.0050949420723117944" pbc="T T T"
Si       1.25592466      -2.63591685       8.90828944
Si       1.25592466       3.89909800       6.72039554
Si       1.25592466      -1.26318112       2.15485361
Si       1.24813145       7.76958226      -0.01652014
Si       1.24813145       1.23456741       2.17137375
Si       1.24813145       6.39684653       6.73691568
Si       0.60365359       0.02851552       4.41020915
Si       0.60365359      -1.32856999       6.66196956
Si       0.60365359       1.30005449       6.71135988
Si       1.90040251       5.10514989       4.48156015
Si       1.90040251       6.46223540       2.22979973
Si       1.90040251       3.83361092       2.18040941
12
Lattice="2.493008515365535 5.3027336799738984e-14 -3.7690148293088484e-14 -2.1826815436395478e-13 10.261582049980252 4.619521747100891e-15 2.434875937110256e-13 -5.13079102499013 8.886790738301293" Properties=species:S:1:pos:R:3 unique_starting_index=66 config_type=initial n_minim_iter=3 stress="0.0030183628642515953 -7.00775795659916e-17 -1.583460290890089e-16 -7.00775795659916e-17 0.0019907307612242967 6.494995179287027e-17 -1.583460290890089e-16 6.494995179287027e-17 0.0019907307612241714" pbc="T T T"
Si       1.24990783      -2.59467362       8.89833543
Si       1.24990783       3.87273033       6.68467629
Si       1.24990783      -1.27805670       2.19056975
Si       1.24310069       7.72546465      -0.01154470
Si       1.24310069       1.25806071       2.20211445
Si       1.24310069       6.40884773       6.69622099
Si       0.61436378       0.02080286       4.42813949
Si       0.61436378      -1.30631116       6.65470519
Si       0.61436378       1.28550832       6.69073679
Si       1.87864474       5.10998818       4.45865125
Si       1.87864474       6.43710220       2.23208554
Si       1.87864474       3.84528272       2.19605394
12
Lattice="2.4927462265680855 5.302175780700175e-14 -3.7686182922087743e-14 -2.177828818936931e-13 10.238767621165858 9.997456981683248e-15 2.4294625122145127e-13 -5.119383810582938 8.867032863375195" Properties=species:S:1:pos:R:3 unique_starting_index=66 config_type=initial n_minim_iter=4 stress="0.0019827490717431594 8.21714535224374e-17 -5.187839528356869e-17 8.21714535224374e-17 -0.002632469685602197 -2.1094761202774975e-17 -5.187839528356869e-17 -2.1094761202774975e-17 -0.0026324696856020713" pbc="T T T"
Si       1.24940733      -2.56292868       8.87454091
Si       1.24940733       3.84765842       6.64932376
Si       1.24940733      -1.28472972       2.21020105
Si       1.24333890       7.68231251      -0.00750805
Si       1.24333890       1.27172540       2.21770910
Si       1.24333890       6.40411354       6.65683181
Si       0.62594756       0.01487030       4.43007875
Si       0.62594756      -1.29025822       6.63911543
Si       0.62594756       1.27538793       6.66487154
Si       1.86679867       5.10451352       4.43695411
Si       1.86679867       6.40964204       2.22791743
Si       1.86679867       3.84399589       2.20216132
12
Lattice="2.4867615642787455 5.2894461529875744e-14 -3.759570476776977e-14 -2.1830907098064022e-13 10.263505689370296 1.1656966177860404e-14 2.4353323797172234e-13 -5.131752844685159 8.88845665888079" Properties=species:S:1:pos:R:3 unique_starting_index=66 config_type=initial n_minim_iter=5 stress="-0.0019182083337052108 -2.698979052339356e-16 1.726318877085599e-16 -2.698979052339356e-16 0.00042119359923920024 2.055432823177751e-17 1.726318877085599e-16 2.055432823177751e-17 0.00042119359923976403" pbc="T T T"
Si       1.24635646      -2.56594596       8.89528517
Si       1.24635646       3.85476308       6.66298846
Si       1.24635646      -1.28881710       2.21863968
Si       1.24040510       7.69769882      -0.00682851
Si       1.24040510       1.27698978       2.22546819
Si       1.24040510       6.42056996       6.66981698
Si       0.62678467       0.01392769       4.44166699
Si       0.62678467      -1.29212023       6.65556144
Si       0.62678467       1.27819256       6.67968489
Si       1.85997689       5.11782517       4.44678967
Si       1.85997689       6.42387309       2.23289522
Si       1.85997689       3.85356030       2.20877177
12
Lattice="2.497488923543623 5.3122636960968144e-14 -3.775788462355227e-14 -2.1897406227283658e-13 10.294769355511999 3.320352641526162e-14 2.4427506460258227e-13 -5.147384677756029 8.915531787974924" Properties=species:S:1:pos:R:3 unique_starting_index=66 config_type=initial n_minim_iter=6 stress="0.007734294039049951 1.0727944440594856e-16 5.000723537207309e-17 1.0727944440594856e-16 0.0033032045981524934 3.874652619627939e-17 5.000723537207309e-17 3.874652619627939e-17 0.0033032045981523073" pbc="T T T"
Si       1.25061697      -2.55404667       8.90886279
Si       1.25061697       3.84494016       6.67296970
Si       1.25061697      -1.29089347       2.24923109
Si       1.24687196       7.70143136       0.00666900
Si       1.24687196       1.30244453       2.24256209
Si       1.24687196       6.43827816       6.66630070
Si       0.69265825      -0.00452452       4.43937698
Si       0.69265825      -1.30050917       6.69976165
Si       0.69265825       1.30503371       6.69192494
Si       1.80483067       5.15190921       4.47615481
Si       1.80483067       6.44789386       2.21577014
Si       1.80483067       3.84235099       2.22360684
12
Lattice="2.492452132174275 5.301550229588926e-14 -3.768173670329366e-14 -2.192795858689115e-13 10.30913313413315 5.687849807669869e-14 2.446158894262821e-13 -5.154566567066625 8.927971185155164" Properties=species:S:1:pos:R:3 unique_starting_index=66 config_type=initial n_minim_iter=7 stress="0.0031595645076717307 1.415579764044138e-16 -1.0272027518576693e-16 1.415579764044138e-16 -0.0014118316299905134 -9.050031312008676e-17 -1.0272027518576693e-16 -9.050031312008676e-17 -0.001411831629990761" pbc="T T T"
Si       1.24695411      -2.54996411       8.90786956
Si       1.24695411       3.83485683       6.68237010
Si       1.24695411      -1.28489271       2.26570270
Si       1.24549802       7.70453069       0.02010162
Si       1.24549802       1.31970975       2.24560108
Si       1.24549802       6.43945929       6.66226848
Si       0.76669981      -0.02326181       4.42635106
Si       0.76669981      -1.30960318       6.73494098
Si       0.76669981       1.33286502       6.69465032
Si       1.72575232       5.17782839       4.50162012
Si       1.72575232       6.46416976       2.19303020
Si       1.72575232       3.82170156       2.23332086
12
Lattice="2.4571073638422134 5.226370424830894e-14 -3.714738250770646e-14 -2.2197165242423477e-13 10.43569700196795 1.013416460249758e-13 2.476190064388212e-13 -5.217848500984065 9.037578709901302" Properties=species:S:1:pos:R:3 unique_starting_index=66 config_type=initial n_minim_iter=8 stress="-0.02063713814066562 -5.284307175654588e-16 2.721202607227385e-16 -5.284307175654588e-16 0.005041770177264734 -4.215947701338203e-17 2.721202607227385e-16 -4.215947701338203e-17 0.005041770177264795" pbc="T T T"
Si       1.22778122      -2.61181150       9.00781344
Si       1.22778122       3.88905253       6.79556710
Si       1.22778122      -1.27724101       2.27177688
Si       1.22932614       7.82966001       0.02976527
Si       1.22932614       1.32879599       2.24201160
Si       1.22932614       6.49508952       6.76580183
Si       0.89835899      -0.04293844       4.47098378
Si       0.89835899      -1.32439373       6.83927261
Si       0.89835899       1.36733220       6.76490103
Si       1.55874837       5.26078696       4.56659493
Si       1.55874837       6.54224225       2.19830610
Si       1.55874837       3.85051632       2.27267768
12
Lattice="2.4492950713810635 5.209753351083976e-14 -3.702927362057078e-14 -2.2344420399207558e-13 10.50492702217071 1.4495171221118836e-13 2.492617015855963e-13 -5.252463511085483 9.097533666101379" Properties=species:S:1:pos:R:3 unique_starting_index=66 config_type=initial n_minim_iter=9 stress="-0.020687943726797574 -6.655603799716668e-16 4.233120535362285e-16 -6.655603799716668e-16 0.009321022592089289 -6.972198528832e-17 4.233120535362285e-16 -6.972198528832e-17 0.009321022592089471" pbc="T T T"
Si       1.22218299      -2.64716494       9.06039611
Si       1.22218299       3.91765217       6.85984770
Si       1.22218299      -1.27048721       2.27482352
Si       1.22711208       7.89962846       0.03713756
Si       1.22711208       1.33481136       2.23768596
Si       1.22711208       6.52295073       6.82271014
Si       1.05141097      -0.06202169       4.51092448
Si       1.05141097      -1.31487746       6.89578379
Si       1.05141097       1.37689918       6.78835906
Si       1.39788410       5.31448522       4.58660919
Si       1.39788410       6.56734099       2.20174987
Si       1.39788410       3.87556435       2.30917460
12
Lattice="2.4686180963125897 5.250854235606368e-14 -3.7321405665307704e-14 -2.2195568745982886e-13 10.434946430760522 1.5307801720938293e-13 2.4760119682853734e-13 -5.217473215380398 9.036928696168296" Properties=species:S:1:pos:R:3 unique_starting_index=66 config_type=initial n_minim_iter=10 stress="-0.0031918854701531428 -2.1819075267304793e-17 -4.697658828042671e-17 -2.1819075267304793e-17 -0.0014439139491378055 -1.4212206403621481e-16 -4.697658828042671e-17 -1.4212206403621481e-16 -0.0014439139491373171" pbc="T T T"
Si       1.23144796      -2.64634264       9.01353428
Si       1.23144796       3.91164778       6.82196151
Si       1.23144796      -1.26530512       2.23836160
Si       1.23717014       7.86381587       0.02339442
Si       1.23717014       1.30582545       2.21496718
Si       1.23717014       6.48277835       6.79856710
Si       1.11887210      -0.05219919       4.52602728
Si       1.11887210      -1.27171901       6.81912089
Si       1.11887210       1.32391822       6.72870922
Si       1.34974600       5.26967242       4.51090142
Si       1.34974600       6.48919223       2.21780780
Si       1.34974600       3.89355501       2.30821947
12
Lattice="2.472653464507528 5.2594376330181746e-14 -3.7382413730361254e-14 -2.2211786103508577e-13 10.442570802046783 1.565956680584406e-13 2.4778210848611707e-13 -5.221285401023532 9.043531595390085" Properties=species:S:1:pos:R:3 unique_starting_index=66 config_type=initial n_minim_iter=11 stress="0.0011071629078685877 5.842046594271665e-17 -2.530265857081548e-17 5.842046594271665e-17 0.00024904141795070093 -1.7306245862176082e-16 -2.530265857081548e-17 -1.7306245862176082e-16 0.0002490414179511878" pbc="T T T"
Si       1.23306927      -2.62756953       9.01839919
Si       1.23306927       3.90266217       6.80987397
Si       1.23306927      -1.27509262       2.25879003
Si       1.23958419       7.84885494       0.02513241
Si       1.23958419       1.31862324       2.23365763
Si       1.23958419       6.49637804       6.78474156
Si       1.13454872      -0.05487105       4.53149174
Si       1.13454872      -1.26946290       6.82530545
Si       1.13454872       1.32433397       6.73026600
Si       1.33810475       5.27615646       4.51203985
Si       1.33810475       6.49074832       2.21822614
Si       1.33810475       3.89695144       2.31326559
12
Lattice="2.4776119100634 5.2699844546946253e-14 -3.7457377192039034e-14 -2.220632250373069e-13 10.440002164511338 1.5928375054325475e-13 2.477211596607241e-13 -5.220001082255812 9.04130709003128" Properties=species:S:1:pos:R:3 unique_starting_index=66 config_type=initial n_minim_iter=12 stress="0.005258732488897264 1.0975125354427227e-16 -9.272037505429869e-17 1.0975125354427227e-16 -0.000218460967615492 -1.687659178588323e-16 -9.272037505429869e-17 -1.687659178588323e-16 -0.00021846096761439824" pbc="T T T"
Si       1.23494392      -2.59113956       9.02920824
Si       1.23494392       3.89509242       6.77069566
Si       1.23494392      -1.30395284       2.28271028
Si       1.24266799       7.81114065       0.01209885
Si       1.24266799       1.32490868       2.27061143
Si       1.24266799       6.52395393       6.75859681
Si       1.16052789      -0.04020686       4.52867785
Si       1.16052789      -1.27794758       6.81178833
Si       1.16052789       1.31815446       6.74214800
Si       1.31708402       5.26020796       4.51262924
Si       1.31708402       6.49794868       2.22951876
Si       1.31708402       3.90184664       2.29915909
12
Lattice="2.470086970591127 5.2539785928078904e-14 -3.734361260485111e-14 -2.2261938972467433e-13 10.466149495024817 1.6964693940998537e-13 2.4834158549347474e-13 -5.2330747475125605 9.063951342497095" Properties=species:S:1:pos:R:3 unique_starting_index=66 config_type=initial n_minim_iter=13 stress="-0.00011213478971269146 -2.8139176358626615e-17 1.0512399481517966e-17 -2.8139176358626615e-17 0.002830351155168925 -1.5801172854473202e-16 1.0512399481517966e-17 -1.5801172854473202e-16 0.002830351155169592" pbc="T T T"
Si       1.23052710      -2.60890185       9.07384019
Si       1.23052710       3.92955230       6.78640653
Si       1.23052710      -1.32065043       2.26765597
Si       1.23955987       7.84197661      -0.00988885
Si       1.23955987       1.30352246       2.27754481
Si       1.23955987       6.55372519       6.79629537
Si       1.21796566      -0.01700781       4.53146278
Si       1.21796566      -1.30020895       6.81294915
Si       1.21796566       1.31721678       6.78349075
Si       1.25212131       5.25008257       4.53248856
Si       1.25212131       6.53328371       2.25100219
Si       1.25212131       3.91585798       2.28046059
12
Lattice="2.4709579004686 5.2558310971879204e-14 -3.7356779618133455e-14 -2.2226946886973113e-13 10.449698439329293 1.6668946592017849e-13 2.47951233601749e-13 -5.224849219664796 9.049704310345698" Properties=species:S:1:pos:R:3 unique_starting_index=66 config_type=initial n_minim_iter=14 stress="-7.662879099062625e-05 -7.451276630124619e-17 -7.240069277203382e-17 -7.451276630124619e-17 6.050902355959644e-05 -1.700943012348463e-16 -7.240069277203382e-17 -1.700943012348463e-16 6.050902356026541e-05" pbc="T T T"
Si       1.23100777      -2.61239772       9.06265692
Si       1.23100777       3.92984077       6.78077865
Si       1.23100777      -1.31744303       2.25597305
Si       1.23995013       7.83724696      -0.01295261
Si       1.23995013       1.29500846       2.26892566
Si       1.23995013       6.54229226       6.79373126
Si       1.22242710      -0.01274073       4.52451356
Si       1.22242710      -1.30013516       6.79848133
Si       1.22242710       1.31287591       6.77641373
Si       1.24853080       5.23758996       4.52519074
Si       1.24853080       6.52498439       2.25122298
Si       1.24853080       3.91197333       2.27329058
12
Lattice="2.4708745127363585 5.255653727983794e-14 -3.7355518934114675e-14 -2.2227791544426628e-13 10.450095543606302 1.6668271608444724e-13 2.4796065612201845e-13 -5.225047771803302 9.050048212737538" Properties=species:S:1:pos:R:3 unique_starting_index=66 config_type=initial n_minim_iter=15 stress="-0.00013718287105955046 2.5755815418557243e-17 -1.1881303524254466e-17 2.5755815418557243e-17 0.00010638184197748704 -1.9075412393579678e-16 -1.1881303524254466e-17 -1.9075412393579678e-16 0.00010638184197815599" pbc="T T T"
Si       1.23087857      -2.61296433       9.06270812
Si       1.23087857       3.92996986       6.78158764
Si       1.23087857      -1.31700551       2.25580066
Si       1.23999594       7.83801211      -0.01265991
Si       1.23999594       1.29507792       2.26846057
Si       1.23999594       6.54205330       6.79424755
Si       1.23016743      -0.01266872       4.52508737
Si       1.23016743      -1.29987279       6.79847597
Si       1.23016743       1.31254153       6.77653309
Si       1.24070709       5.23771651       4.52496084
Si       1.24070709       6.52492057       2.25157224
Si       1.24070709       3.91250626       2.27351512
12
Lattice="2.4711522853695773 5.2562445620256636e-14 -3.735971839499628e-14 -2.2225475527405568e-13 10.449006699530075 1.6623662822099978e-13 2.4793481994756163e-13 -5.224503349765189 9.049105246106764" Properties=species:S:1:pos:R:3 unique_starting_index=66 config_type=initial n_minim_iter=16 stress="5.167112069061969e-05 7.915133177351503e-17 7.780569417155e-18 7.915133177351503e-17 -5.8757865568490086e-05 -1.921978827016304e-16 7.780569417155e-18 -1.921978827016304e-16 -5.875786556751698e-05" pbc="T T T"
Si       1.23093070      -2.61255138       9.06073548
Si       1.23093070       3.92859945       6.78127338
Si       1.23093070      -1.31604805       2.25620163
Si       1.24022159       7.83705474      -0.01163023
Si       1.24022159       1.29590391       2.26783187
Si       1.24022159       6.54055142       6.79290361
Si       1.23770074      -0.01232446       4.52465286
Si       1.23770074      -1.29987679       6.79745212
Si       1.23770074       1.31220127       6.77610551
Si       1.23345155       5.23682783       4.52445238
Si       1.23345155       6.52438015       2.25165312
Si       1.23345155       3.91230209       2.27299974
12
Lattice="2.4715824733497027 5.2571595899033825e-14 -3.73662221227874e-14 -2.2219688614401066e-13 10.44628606065425 1.6581497155595897e-13 2.4787026442288663e-13 -5.223143030327276 9.046749103725775" Properties=species:S:1:pos:R:3 unique_starting_index=66 config_type=initial n_minim_iter=17 stress="0.00031636735487997113 -3.720817888096323e-17 7.889470743562323e-17 -3.720817888096323e-17 -0.00047417226125141983 -2.2054572456069543e-16 7.889470743562323e-17 -2.2054572456069543e-16 -0.00047417226125093313" pbc="T T T"
Si       1.23100020      -2.61133905       9.05398281
Si       1.23100020       3.92350563       6.78124366
Si       1.23100020      -1.31216656       2.25827173
Si       1.24058227       7.83448210      -0.00723371
Si       1.24058227       1.29963742       2.26550544
Si       1.24058227       6.53530960       6.78847737
Si       1.25062098      -0.00989891       4.52336612
Si       1.25062098      -1.30084360       6.79363876
Si       1.25062098       1.31074253       6.77649333
Si       1.22096150       5.23304196       4.52338299
Si       1.22096150       6.52398664       2.25311034
Si       1.22096150       3.91240051       2.27025577
12
Lattice="2.4708991974547634 5.2557062334152326e-14 -3.7355892126059865e-14 -2.2223787829107742e-13 10.448213251002986 1.5895435812689092e-13 2.479159929409994e-13 -5.224106625501636 9.048418099525714" Properties=species:S:1:pos:R:3 unique_starting_index=66 config_type=initial n_minim_iter=18 stress="-0.00018419724457948238 -7.866463137584789e-17 -6.14592959827659e-17 -7.866463137584789e-17 -0.00024721149568221793 -1.356896199848478e-16 -6.14592959827659e-17 -1.356896199848478e-16 -0.0002472114956814271" pbc="T T T"
Si       1.23084182      -2.61182998       9.04924383
Si       1.23084182       3.91868342       6.78570730
Si       1.23084182      -1.30685342       2.26188506
Si       1.24005738       7.83593662      -0.00082573
Si       1.24005738       1.30542322       2.26271079
Si       1.24005738       6.53096005       6.78653304
Si       1.23653588      -0.00124221       4.52396051
Si       1.23653588      -1.30562079       6.78751363
Si       1.23653588       1.30686301       6.78536206
Si       1.23436331       5.22534885       4.52445759
Si       1.23436331       6.52972743       2.26090447
Si       1.23436331       3.91724363       2.26305604
