24
Lattice="8.801914207296019 0.4853935245659837 -1.4932588495046966 -3.980593980541405 6.770185209268248 0.8584076265476199 -1.5529471577029803 0.1342295295418773 9.188908360371725" Properties=species:S:1:pos:R:3 unique_starting_index=90 config_type=initial n_minim_iter=1 energy=-3891.853356810226 free_energy=-3891.853356810226 pbc="T T T"
Si       5.64841192       0.65304750       5.69732328
Si       0.58865261       2.75807195       0.45445377
Si       5.01823964       5.43145176       1.03318652
Si       0.97274634       0.60454504       2.09272246
Si       3.45950321       2.86977303       7.86203809
Si      -3.47454232       5.05309148       7.88710375
Si      -0.00300694       2.25398938       3.52411468
Si       1.48425624       4.71673736       7.09541524
Si      -3.31898354       6.89286367       7.64457291
Si       4.74799782       2.52026766       4.84345157
Si       0.72233924       4.61962333       1.72879604
Si       2.79557733       6.99120686       1.60947909
Si       3.89298141       6.99084557      -0.34822200
Si       5.85491683       2.71299730       6.87029443
Si      -1.58809862       4.35246698       1.32496097
Si      -4.32568832       6.76623919       9.49494019
Si      -1.31443795       1.96341261       1.62093963
Si       3.62119902       4.99428454       7.63974084
Si       2.02522474       1.21352578       7.45986468
Si      -1.34122977       3.25576885       5.20627940
Si      -0.07313896       5.45986890       5.53799582
Si       4.55362602       1.08434699       0.36917252
Si       5.28868990       3.66748101       2.99080191
Si       1.13344872       5.70211420       3.62424350
24
Lattice="8.915615969474027 0.5384828915333487 -1.4904012192918445 -3.9962161308018245 6.888643092590285 0.865584248804716 -1.5552509328242032 0.13795761632710254 9.27243046623486" Properties=species:S:1:pos:R:3 unique_starting_index=90 config_type=initial n_minim_iter=2 stress="-0.00034949892186379554 0.004610279689131669 0.0035726375750676697 0.004610279689131669 0.009350010827924395 5.4942702160324205e-05 0.0035726375750676697 5.4942702160324205e-05 -0.00362537483280623" pbc="T T T"
Si       5.73570463       0.69963949       5.76174503
Si       0.61161222       2.81737847       0.46216668
Si       5.11280666       5.56807072       1.05794292
Si       0.99263022       0.62351145       2.11485957
Si       3.53400727       2.95252033       7.94492425
Si      -3.47877921       5.14073319       7.95995259
Si       0.01541206       2.30371178       3.55932717
Si       1.54020197       4.82716455       7.16957298
Si      -3.31551404       7.02641041       7.71340860
Si       4.83065747       2.60061806       4.90066711
Si       0.75853068       4.71888808       1.75097106
Si       2.87001324       7.14907235       1.63725644
Si       3.97755885       7.15230720      -0.33805456
Si       5.95699917       2.80500078       6.94795810
Si      -1.58426567       4.43444353       1.33878680
Si      -4.32957430       6.89186145       9.58255199
Si      -1.31921136       1.99828398       1.63616234
Si       3.70730524       5.12211983       7.72336498
Si       2.07486209       1.25830080       7.53604031
Si      -1.33207680       3.32056383       5.25630231
Si      -0.03651719       5.57563050       5.59530947
Si       4.61869434       1.12992786       0.38266033
Si       5.38137421       3.77225637       3.03147554
Si       1.18437078       5.82777602       3.66613509
24
Lattice="9.001305061998249 0.49234742671677467 -1.5547542267433694 -4.070599733250178 6.885510481304509 0.9007031455826288 -1.6177963484305702 0.1500598167047517 9.396958246623779" Properties=species:S:1:pos:R:3 unique_starting_index=90 config_type=initial n_minim_iter=3 stress="0.008480020100375135 0.0016347644609421847 -0.0006730119945221851 0.0016347644609421847 0.010610830851713259 -0.0008727009104588442 -0.0006730119945221851 -0.0008727009104588442 0.008655656435531369" pbc="T T T"
Si       5.75537722       0.66722209       5.80416301
Si       0.60250930       2.80340416       0.46547420
Si       5.12695619       5.52328601       1.04993698
Si       0.98839283       0.61632766       2.13661918
Si       3.51364348       2.92470533       8.02683267
Si      -3.57165907       5.14791633       8.07987513
Si      -0.01180536       2.30036161       3.60414483
Si       1.49192638       4.80818972       7.25532370
Si      -3.41413403       7.02503656       7.82831378
Si       4.83310513       2.57233989       4.94189110
Si       0.73344918       4.69914692       1.77222532
Si       2.85104338       7.11143107       1.64992042
Si       3.97713760       7.10769380      -0.36238606
Si       5.95876511       2.77228519       7.00439512
Si      -1.62835011       4.42866360       1.36617963
Si      -4.45141885       6.89778837       9.72872482
Si      -1.35316356       1.99908295       1.66724141
Si       3.67364186       5.09314475       7.80625693
Si       2.04390295       1.24381393       7.61575650
Si      -1.38536301       3.32109684       5.33360048
Si      -0.09537537       5.55726869       5.67009332
Si       4.65293142       1.10402900       0.36663075
Si       5.39652988       3.73750034       3.03893810
Si       1.15059069       5.80622141       3.71001980
24
Lattice="9.010881893696359 0.45574696880410376 -1.504364476210718 -4.0855338249492 6.845618611235412 0.9622106075899685 -1.5868190241683104 0.26417060941227705 9.319816072792714" Properties=species:S:1:pos:R:3 unique_starting_index=90 config_type=initial n_minim_iter=4 stress="-0.012007245092323716 -0.01264050335616449 -0.010514765563046783 -0.01264050335616449 0.00048323232209044264 -0.008553268693799179 -0.010514765563046783 -0.008553268693799179 0.0019926502243429603" pbc="T T T"
Si       5.79188592       0.68994589       5.78349511
Si       0.60705804       2.77135232       0.49348863
Si       5.13590534       5.47277297       1.13785529
Si       0.99989685       0.62801028       2.12924920
Si       3.56748693       2.95875919       8.00502019
Si      -3.53230152       5.20050434       8.06993410
Si       0.01038545       2.34126661       3.59670498
Si       1.50399157       4.86049788       7.26914520
Si      -3.38844706       7.08770998       7.81416575
Si       4.83635597       2.61284619       4.97100158
Si       0.73342825       4.67382336       1.82337796
Si       2.84292349       7.06540149       1.74877747
Si       3.95295785       7.03139635      -0.27969249
Si       5.97278547       2.83758897       6.99827321
Si      -1.64170409       4.41472443       1.40308044
Si      -4.43103002       6.97968357       9.71635609
Si      -1.37532091       2.00694709       1.68746405
Si       3.68931710       5.15668239       7.83330727
Si       2.06211231       1.31019135       7.55861427
Si      -1.35963318       3.37349337       5.34201559
Si      -0.09495651       5.56130187       5.69918350
Si       4.66280772       1.09461869       0.40726699
Si       5.41587959       3.74951533       3.04985631
Si       1.17359033       5.81176446       3.76335637
24
Lattice="9.13741822151236 0.44631940270085774 -1.3393171341176464 -4.09835752575721 6.64467066053261 1.1064764647221286 -1.4755047443804221 0.5417323121321166 9.182981243797318" Properties=species:S:1:pos:R:3 unique_starting_index=90 config_type=initial n_minim_iter=5 stress="-0.015777964754044655 -0.015742954395109338 -0.009696753233325228 -0.015742954395109338 -0.04998781654424761 -0.0006603406834897923 -0.009696753233325228 -0.0006603406834897923 -0.007501467097114441" pbc="T T T"
Si       5.98586456       0.82220517       5.80319689
Si       0.65239106       2.68019327       0.57409428
Si       5.27697516       5.35468077       1.39166737
Si       1.05648944       0.66768408       2.13195790
Si       3.80508738       3.07913397       8.02922619
Si      -3.39108602       5.27394642       8.08405316
Si       0.10259123       2.41636900       3.61085560
Si       1.64344379       4.96598909       7.36327029
Si      -3.27137119       7.12241925       7.83179953
Si       4.96324602       2.73869955       5.09684611
Si       0.79786664       4.58066408       1.96866861
Si       2.93930728       6.91819975       2.02103216
Si       4.01473726       6.81673375      -0.03740539
Si       6.15179623       3.03220285       7.07023618
Si      -1.63943613       4.32300287       1.49993332
Si      -4.31326987       7.07912487       9.73846813
Si      -1.40720106       1.99649242       1.73595934
Si       3.87020350       5.30352717       7.97400718
Si       2.20034489       1.50531897       7.49578966
Si      -1.25556372       3.45982571       5.38925394
Si      -0.00479545       5.53705856       5.81010934
Si       4.75478359       1.10676667       0.53124342
Si       5.57878694       3.79010110       3.14909347
Si       1.31531901       5.78272935       3.93103627
24
Lattice="9.07624859885702 0.4753629458955144 -1.185524161059666 -4.020927896410904 6.563328458098562 1.1532917352424745 -1.3315545216898177 0.6854207167069349 9.065588135859528" Properties=species:S:1:pos:R:3 unique_starting_index=90 config_type=initial n_minim_iter=6 stress="-0.010619852258077288 -0.003645873600782144 0.0012447072404735062 -0.003645873600782144 -0.036530202916590745 0.00753201373171619 0.0012447072404735062 0.00753201373171619 -0.013639757518328369" pbc="T T T"
Si       6.05701040       0.89270480       5.82224203
Si       0.68617962       2.64097849       0.61608296
Si       5.31467121       5.33879823       1.56434049
Si       1.09083864       0.69078556       2.13098841
Si       3.96609119       3.14496290       8.02158701
Si      -3.17169785       5.32387558       8.04561025
Si       0.19750903       2.48697727       3.60032024
Si       1.75774942       5.06131274       7.40603510
Si      -3.08777130       7.18653466       7.75620744
Si       4.98907019       2.84713048       5.19830101
Si       0.84591381       4.54827876       2.05253094
Si       2.98088367       6.88636956       2.19546436
Si       4.00068450       6.74700493       0.10156962
Si       6.21014180       3.18116101       7.11394170
Si      -1.59648989       4.30145074       1.53519818
Si      -4.09908752       7.17165943       9.68551294
Si      -1.40414417       1.99973344       1.76166218
Si       3.97481253       5.43810790       8.05715663
Si       2.30520998       1.62127745       7.44366564
Si      -1.12577303       3.53197229       5.39718236
Si       0.08759549       5.54161987       5.85178177
Si       4.74671524       1.13514326       0.64293780
Si       5.63979011       3.85950235       3.20967664
Si       1.43860265       5.81412841       4.01651846
24
Lattice="9.005478154231673 0.6411206049115641 -1.0830735742833655 -3.8833384972167786 6.535092021474248 0.9560596757413706 -1.213528958984502 0.4669508692661069 8.971328283403736" Properties=species:S:1:pos:R:3 unique_starting_index=90 config_type=initial n_minim_iter=7 stress="-0.015904596485608234 -0.005272798631063154 -0.0029125244221376743 -0.005272798631063154 -0.00796788588697628 -0.004678832561177918 -0.0029125244221376743 -0.004678832561177918 -0.011713290030289203" pbc="T T T"
Si       6.09716152       0.80701711       5.80866339
Si       0.73938984       2.63931595       0.55282980
Si       5.37717266       5.42820363       1.50678094
Si       1.12042260       0.65327298       2.11306910
Si       4.11158900       2.99486032       7.90451948
Si      -2.92216235       5.16313965       7.85453648
Si       0.30274455       2.47036414       3.50950237
Si       1.88161429       4.97391408       7.28344541
Si      -2.86129863       7.03972132       7.44565131
Si       5.00318782       2.84742806       5.19699621
Si       0.92013598       4.52585733       1.97085160
Si       3.07019367       6.92517671       2.10253809
Si       4.03360058       6.84191236      -0.03457399
Si       6.26304782       3.16314722       7.04602456
Si      -1.51342615       4.30288326       1.41063206
Si      -3.84848279       6.99282647       9.40599488
Si      -1.38230201       1.95949040       1.72724432
Si       4.08867630       5.38821200       7.94929058
Si       2.38265358       1.48984883       7.35138350
Si      -0.99348887       3.44178536       5.28597207
Si       0.20092921       5.42805520       5.70099100
Si       4.72338025       1.19259564       0.70791384
Si       5.72849030       3.91649004       3.13767286
Si       1.59798306       5.81433932       3.87878667
24
Lattice="8.971755200175737 0.6991131176528602 -0.9636903402684561 -3.814535575276001 6.545290656472322 0.9434770274114337 -1.0764975445251375 0.5089710319118352 9.017789885267" Properties=species:S:1:pos:R:3 unique_starting_index=90 config_type=initial n_minim_iter=8 stress="0.004027915065309129 0.002139454643947875 0.005564573466797562 0.002139454643947875 0.00776503814527478 0.0010272054196744029 0.005564573466797562 0.0010272054196744029 0.0071773878306713714" pbc="T T T"
Si       6.17210107       0.84267073       5.89631893
Si       0.77248867       2.63539575       0.56801012
Si       5.42235442       5.51054782       1.62203706
Si       1.15738070       0.66270934       2.14724776
Si       4.25787654       3.03189823       7.99040430
Si      -2.70093460       5.24145189       7.91888372
Si       0.40394547       2.54551085       3.53427376
Si       1.99757632       5.05302632       7.40752509
Si      -2.67606970       7.10817494       7.42204803
Si       5.03256069       2.93699032       5.34372552
Si       0.96695564       4.53357092       2.05150347
Si       3.13410424       6.97070021       2.23382575
Si       4.03548037       6.87759118       0.03038707
Si       6.36460019       3.28111286       7.18084413
Si      -1.45722802       4.35032865       1.41826213
Si      -3.64253203       7.09402875       9.44440092
Si      -1.36927184       1.97384094       1.77360907
Si       4.20902462       5.49479913       8.10466674
Si       2.48258466       1.53734969       7.41872059
Si      -0.89138659       3.48814582       5.33521338
Si       0.29203703       5.46092039       5.77668606
Si       4.70442252       1.22316727       0.81924352
Si       5.83749315       3.98574231       3.25343271
Si       1.73027737       5.89002535       3.95557843
24
Lattice="9.11610690918538 0.8564506132864066 -1.0274884217325062 -3.7522824981051826 6.509443398398344 1.0069037637325038 -1.2010179914525092 0.5319517858225435 8.81984857085213" Properties=species:S:1:pos:R:3 unique_starting_index=90 config_type=initial n_minim_iter=9 stress="0.009721370483432683 0.0031835780876449758 -0.0007079841053339201 0.0031835780876449758 0.009836745500659317 0.0018282846395422621 -0.0007079841053339201 0.0018282846395422621 0.00553379111073178" pbc="T T T"
Si       6.18711128       0.94982799       5.65335503
Si       0.83464316       2.63778178       0.55030197
Si       5.57293817       5.65649647       1.57060609
Si       1.16056888       0.68304817       2.09183392
Si       4.27069652       3.11322503       7.74038624
Si      -2.67110761       5.28228038       7.82545229
Si       0.44712235       2.62180778       3.44698278
Si       1.99717873       5.14145978       7.27360300
Si      -2.64857134       7.14254550       7.25773333
Si       5.02648094       3.07229314       5.21422533
Si       1.02648302       4.54525543       2.06249158
Si       3.27515464       7.04327089       2.23884287
Si       4.18421205       6.95294383       0.01406800
Si       6.42241072       3.46269846       6.95353928
Si      -1.40143321       4.38458342       1.42549309
Si      -3.66662846       7.15058925       9.29936564
Si      -1.39998185       1.97170322       1.80814171
Si       4.23648676       5.62663608       7.92541631
Si       2.43543941       1.60970673       7.20399706
Si      -0.91772368       3.51203818       5.24771888
Si       0.29300434       5.49417028       5.68240708
Si       4.74130762       1.30040346       0.79352396
Si       6.00727032       4.10612173       3.15415999
Si       1.85238977       5.97678275       3.87889135
24
Lattice="9.128287564581989 1.0601445617060143 -0.9261692779216321 -3.601771215512397 6.407760137634061 0.911741669909327 -1.1101641349898757 0.43551096191124583 8.694912389944378" Properties=species:S:1:pos:R:3 unique_starting_index=90 config_type=initial n_minim_iter=10 stress="0.014731066103536765 0.004930530052998679 0.00028983661276201666 0.004930530052998679 0.00785999945132881 0.0005698243562992565 0.00028983661276201666 0.0005698243562992565 0.009814994593596022" pbc="T T T"
Si       6.24126349       1.01441361       5.54604455
Si       0.90617161       2.61348870       0.50592210
Si       5.70200234       5.80213354       1.56881879
Si       1.20052845       0.67362737       2.08233859
Si       4.38048561       3.10406070       7.61082396
Si      -2.38357715       5.19451861       7.71087042
Si       0.58422515       2.64758279       3.37166424
Si       2.14259549       5.10460017       7.21121737
Si      -2.39005379       7.05015149       7.00177137
Si       5.05196040       3.13430467       5.19914341
Si       1.12707311       4.49424338       2.07453507
Si       3.45837902       7.05140090       2.25046857
Si       4.30130308       7.00247798       0.00001606
Si       6.61169716       3.57841971       6.89722347
Si      -1.25418477       4.39858192       1.35991126
Si      -3.40593899       7.06275810       9.07835405
Si      -1.36399531       1.93136136       1.83179493
Si       4.39720768       5.60866509       7.84270448
Si       2.52684624       1.59992137       7.10239872
Si      -0.82142303       3.43183582       5.14540699
Si       0.41869809       5.42984432       5.57275626
Si       4.69986234       1.36195167       0.86340179
Si       6.22263168       4.15462502       3.19787746
Si       2.06207406       5.98669149       3.79354690
24
Lattice="8.925599859641524 1.0317006467446619 -0.8898132902492715 -3.52437188906726 6.458254956327152 0.9521344967601422 -1.0628568014406896 0.5174325048110231 8.568438775957013" Properties=species:S:1:pos:R:3 unique_starting_index=90 config_type=initial n_minim_iter=11 stress="0.0027814594433456987 -0.0007701228844573579 -0.0012853010280232664 -0.0007701228844573579 -0.0016184437518991263 0.003747900605607488 -0.0012853010280232664 0.003747900605607488 -0.0002988164476231372" pbc="T T T"
Si       6.09362416       1.05117482       5.38182459
Si       0.89267225       2.60236273       0.48727877
Si       5.57260292       5.88021114       1.61898914
Si       1.18616078       0.67693717       2.07117214
Si       4.24091124       3.17671113       7.49049714
Si      -2.23372399       5.31586754       7.68106874
Si       0.60915859       2.70058792       3.33924281
Si       2.08029156       5.16507089       7.19182715
Si      -2.30049565       7.18066149       6.87740957
Si       4.88266124       3.17270725       5.15742432
Si       1.09823023       4.50387192       2.13373767
Si       3.40600312       7.07857476       2.32122622
Si       4.17676073       7.01836318       0.07245679
Si       6.55863502       3.67560214       6.83293425
Si      -1.16771561       4.50267633       1.38569650
Si      -3.29592249       7.26390299       8.98748146
Si      -1.33642947       1.97123906       1.88992737
Si       4.29935326       5.62094587       7.77297465
Si       2.49623917       1.68608393       7.01068786
Si      -0.81206923       3.47881690       5.09842376
Si       0.38317532       5.51101366       5.52560378
Si       4.51131986       1.32744310       0.89177122
Si       6.15921965       4.11495992       3.25162587
Si       2.03484747       6.03971901       3.77996985
24
Lattice="8.801319309849498 1.0928489481486723 -0.8654732927590905 -3.429313997372516 6.330611666638632 0.8484316507932327 -1.0071117866900396 0.3849930833482832 8.569450361476019" Properties=species:S:1:pos:R:3 unique_starting_index=90 config_type=initial n_minim_iter=12 stress="-0.008493339270176002 -0.0023092905996403785 -0.002577685498441744 -0.0023092905996403785 -0.017794763075347005 -0.004113166827823207 -0.002577685498441744 -0.004113166827823207 -0.0063904820108564644" pbc="T T T"
Si       6.01745245       1.02986464       5.34018408
Si       0.90032576       2.56019775       0.42574298
Si       5.54080349       5.84395324       1.58414802
Si       1.18888881       0.64098798       2.08138530
Si       4.17104208       3.09950315       7.47029710
Si      -2.11214187       5.10787970       7.62780286
Si       0.63223333       2.58317736       3.32253351
Si       2.09179442       4.98526061       7.15859971
Si      -2.18304181       6.99044948       6.73881870
Si       4.83165067       3.07698985       5.12350472
Si       1.13157994       4.42879417       2.09328189
Si       3.44409116       6.98016691       2.24269433
Si       4.15477028       6.95731569       0.00126534
Si       6.59206747       3.59888957       6.82977518
Si      -1.07021190       4.45146982       1.33802481
Si      -3.16043011       7.05354307       8.87590784
Si      -1.28795341       1.91670931       1.89499474
Si       4.31774486       5.40243953       7.70596972
Si       2.50630289       1.60858868       7.02163888
Si      -0.74789971       3.34374785       5.06484288
Si       0.42107890       5.38524724       5.44067807
Si       4.39805953       1.30436587       0.89299109
Si       6.11021921       3.98943170       3.25593275
Si       2.03345370       5.89787206       3.70572674
24
Lattice="8.691024223719605 1.0829338229137746 -0.6584030889001048 -3.3552030236946218 6.2846803674014 0.9022470445494547 -0.7958910792502715 0.5746305543274506 8.488081133853498" Properties=species:S:1:pos:R:3 unique_starting_index=90 config_type=initial n_minim_iter=13 stress="-0.018657753971449555 -0.006945246673212648 0.000497498698106706 -0.006945246673212648 -0.03318688650278812 -0.00420181269669526 0.000497498698106706 -0.00420181269669526 -0.021071642353918653" pbc="T T T"
Si       6.06163987       1.13747657       5.35429450
Si       0.92621817       2.53237519       0.44721830
Si       5.55502380       5.85792356       1.85132079
Si       1.24177484       0.66413049       2.11335087
Si       4.26190465       3.26451597       7.53610441
Si      -1.83428025       5.22329779       7.66448022
Si       0.73374448       2.60592712       3.37920265
Si       2.20135098       5.08537903       7.27579138
Si      -1.94733455       7.11693395       6.69346245
Si       4.85383225       3.17247398       5.24507136
Si       1.19858041       4.43695527       2.21018527
Si       3.51050109       6.98570668       2.45905964
Si       4.08308316       6.89381382       0.19353831
Si       6.76285540       3.77993253       6.97961754
Si      -0.96758464       4.49898969       1.42861777
Si      -2.89351047       7.25043675       8.86725861
Si      -1.24674024       1.95393014       1.95728537
Si       4.48180115       5.49392769       7.83329006
Si       2.61617234       1.76416834       7.03732744
Si      -0.55979950       3.43875518       5.12693024
Si       0.51799915       5.47220797       5.49827850
Si       4.29558754       1.28962121       1.01960656
Si       6.11788421       3.96513971       3.41503275
Si       2.10471029       5.92541287       3.84316733
24
Lattice="8.295076105521797 1.0497858506839675 -0.6078985700596887 -3.1516224311795185 6.3828741763326295 1.1999297269585418 -0.666067513674239 0.987441307739791 8.667924762108164" Properties=species:S:1:pos:R:3 unique_starting_index=90 config_type=initial n_minim_iter=14 stress="-0.03349145676681937 -0.008350942121899288 -0.0031562497699624153 -0.008350942121899288 -0.029464796928336468 -0.0019131797558309207 -0.0031562497699624153 -0.0019131797558309207 -0.01757221065276604" pbc="T T T"
Si       5.82460002       1.37863811       5.40573927
Si       0.94084062       2.57516853       0.51415577
Si       5.39460393       6.00520081       2.24155055
Si       1.23776003       0.74222076       2.19989613
Si       4.09413204       3.69024578       7.82273487
Si      -1.58461840       5.62523349       8.07760175
Si       0.76672384       2.69415879       3.60325224
Si       2.14018978       5.43590444       7.67249753
Si      -1.70346551       7.52578361       7.00516277
Si       4.65691512       3.43251337       5.48435307
Si       1.23947599       4.60591033       2.45985555
Si       3.47832240       7.19533643       2.83771623
Si       3.88379139       6.94099979       0.45959915
Si       6.65720840       4.19060506       7.29146514
Si      -0.81467528       4.68567430       1.72436533
Si      -2.62493795       7.79794548       9.32927370
Si      -1.17578912       2.09397280       2.15893881
Si       4.44716769       5.86218843       8.21598496
Si       2.53818009       2.12803637       7.26438699
Si      -0.37873857       3.72495255       5.45674511
Si       0.54692169       5.81867526       5.82755820
Si       4.01244541       1.29554443       1.11226696
Si       5.84927136       4.03860320       3.61790241
Si       2.04441163       6.13054686       4.19612673
24
Lattice="8.31585007988589 1.0337769679968853 -0.46876552281949513 -3.1421944839290314 6.40515889512455 1.3107235322915256 -0.5419125825332703 1.2126568453906796 8.63983060023798" Properties=species:S:1:pos:R:3 unique_starting_index=90 config_type=initial n_minim_iter=15 stress="-0.02460980674029446 -0.007697835283778162 0.00352262596901119 -0.007697835283778162 -0.019475026415403517 0.0004958827268222437 0.00352262596901119 0.0004958827268222437 -0.010978401883884874" pbc="T T T"
Si       5.90967968       1.47626966       5.41220206
Si       0.99561450       2.59130620       0.55843611
Si       5.47871155       6.06267219       2.51286331
Si       1.29861422       0.77784432       2.23403750
Si       4.18803511       3.89037337       7.91338821
Si      -1.41964922       5.82900867       8.19081559
Si       0.84513189       2.72479495       3.69285042
Si       2.20144473       5.60615828       7.81890499
Si      -1.56304565       7.72535769       7.00725360
Si       4.70160290       3.57345587       5.61947224
Si       1.33266725       4.68471618       2.59558255
Si       3.57181555       7.29244317       3.06798756
Si       3.84354899       6.91451867       0.61176041
Si       6.83694294       4.41617412       7.43319587
Si      -0.76763022       4.78321740       1.86037210
Si      -2.50062282       8.07187597       9.42047596
Si      -1.17654789       2.17375473       2.24904947
Si       4.62263442       6.07440162       8.38825726
Si       2.60886076       2.31238103       7.31757445
Si      -0.24242538       3.87293272       5.58004763
Si       0.59331371       5.98284141       5.94840046
Si       3.96807581       1.28680703       1.20915475
Si       5.90352944       4.06226930       3.72077260
Si       2.09947098       6.22234621       4.35764175
24
Lattice="8.657023792989108 1.04218514075789 -0.5479169551591527 -3.2792883814152347 6.419970063402767 1.4242965114299944 -0.7061013879688423 1.3138982487030866 8.546060872123487" Properties=species:S:1:pos:R:3 unique_starting_index=90 config_type=initial n_minim_iter=16 stress="0.007608242840143525 -0.005357236858011186 -0.002060055464935063 -0.005357236858011186 0.0019488178438547936 0.0029432412921202304 -0.002060055464935063 0.0029432412921202304 0.006705035805703465" pbc="T T T"
Si       6.06214010       1.53749149       5.29309077
Si       1.07087772       2.64238701       0.59223467
Si       5.68196432       6.08592813       2.52562698
Si       1.33442499       0.80580666       2.20193527
Si       4.22609409       4.00427152       7.82807944
Si      -1.63278532       5.91405168       8.17688806
Si       0.81333899       2.70927889       3.70001957
Si       2.14075493       5.69151576       7.75960698
Si      -1.70103323       7.81714655       7.00499168
Si       4.80299661       3.64628185       5.54316001
Si       1.40618356       4.75495574       2.60435492
Si       3.69379320       7.37520212       3.07205154
Si       3.97893546       6.91685562       0.61930382
Si       6.98362506       4.51218147       7.29592345
Si      -0.84115222       4.81137184       1.92912342
Si      -2.78329346       8.14350666       9.42589808
Si      -1.26488426       2.21602462       2.26631263
Si       4.72570365       6.23874499       8.32751616
Si       2.57383076       2.39716770       7.23817289
Si      -0.31761402       3.92799339       5.58737780
Si       0.51528421       6.09165009       5.97066977
Si       4.09611781       1.29153105       1.15931790
Si       6.04852593       4.11227836       3.61239762
Si       2.09641918       6.26843757       4.35563158
24
Lattice="8.664249949229522 1.1554512519691897 -0.5598926405969713 -3.193357072747851 6.352108437711257 1.4213715502584547 -0.726107472248644 1.2842762460536867 8.489534498454812" Properties=species:S:1:pos:R:3 unique_starting_index=90 config_type=initial n_minim_iter=17 stress="0.0054475156575946645 -0.0016907237276172914 -0.0029118984374973153 -0.0016907237276172914 0.001368911324247161 0.0015508325770422944 -0.0029118984374973153 0.0015508325770422944 0.0017084498306960889" pbc="T T T"
Si       6.04466286       1.58466821       5.20817504
Si       1.12885900       2.65410393       0.57657824
Si       5.75385439       6.15005434       2.51641515
Si       1.34941858       0.80807913       2.18913795
Si       4.22040340       4.02970788       7.75464677
Si      -1.56268193       5.86298944       8.14052772
Si       0.84528655       2.68709676       3.68315905
Si       2.15372441       5.67160644       7.71602886
Si      -1.59760935       7.76608669       6.89939885
Si       4.79166656       3.68469292       5.50525126
Si       1.47879660       4.75266345       2.59679814
Si       3.79236855       7.40095740       3.05442101
Si       4.04268104       6.92847227       0.58249344
Si       7.02590866       4.59009951       7.22052656
Si      -0.76968821       4.81209461       1.93392566
Si      -2.72104090       8.07661195       9.35898954
Si      -1.25250474       2.20644670       2.28938419
Si       4.78100420       6.27258768       8.27368721
Si       2.56388981       2.41555890       7.19173498
Si      -0.28737409       3.88773135       5.56314914
Si       0.54482891       6.08133460       5.93838439
Si       4.06240474       1.31596676       1.15419229
Si       6.09771350       4.14806818       3.57111475
Si       2.16305531       6.26515375       4.31234511
24
Lattice="8.631244568877126 1.2710232061604756 -0.5612240015994854 -3.1063626113940916 6.24519710872488 1.2882010793098793 -0.7136010104453117 1.092015531353981 8.464236588098144" Properties=species:S:1:pos:R:3 unique_starting_index=90 config_type=initial n_minim_iter=18 stress="0.0005119038547718836 0.0038378810755885433 -0.0009007785494986779 0.0038378810755885433 0.0014036380836118779 -0.003633667341259371 -0.0009007785494986779 -0.003633667341259371 -6.954422272007444e-05" pbc="T T T"
Si       6.02594533       1.53637183       5.18665023
Si       1.21401023       2.70203530       0.54584312
Si       5.78928980       6.15011014       2.41105623
Si       1.38594747       0.77006600       2.17903853
Si       4.21115680       3.91784317       7.69898597
Si      -1.52762261       5.62540815       8.01294725
Si       0.86339363       2.58034457       3.64270286
Si       2.17471333       5.47393043       7.61444752
Si      -1.46396945       7.55359342       6.68878953
Si       4.79683364       3.59697882       5.44967875
Si       1.55998102       4.68172062       2.50303937
Si       3.86130169       7.34917543       2.90310076
Si       4.08948753       6.90763696       0.42692385
Si       7.02860044       4.48267538       7.10309921
Si      -0.72004936       4.75733895       1.85888281
Si      -2.66811737       7.76447427       9.18118673
Si      -1.21385686       2.16604364       2.26515429
Si       4.85675203       6.18120288       8.19909115
Si       2.58969478       2.31412883       7.19539959
Si      -0.29553133       3.68782869       5.47346702
Si       0.57455367       5.97429881       5.85319421
Si       4.01414908       1.29690092       1.13718988
Si       6.14171827       4.13411190       3.52621720
Si       2.22151749       6.16881886       4.16137583
24
Lattice="8.637510305372341 1.1990547913237788 -0.5819362589667875 -3.1765449471095715 6.235585575368528 1.2262936185955988 -0.7399865157787499 1.0135328217039028 8.42363795089285" Properties=species:S:1:pos:R:3 unique_starting_index=90 config_type=initial n_minim_iter=19 stress="-0.0046057452591203125 0.002525532860454253 -0.0009977657282100934 0.002525532860454253 -3.331814703925866e-05 -0.004304094024713102 -0.0009977657282100934 -0.004304094024713102 -0.0009766537533031617" pbc="T T T"
Si       6.01722879       1.42646780       5.16478477
Si       1.24435306       2.74285606       0.54321831
Si       5.72996743       6.06210348       2.31859481
Si       1.41398181       0.73366901       2.15469037
Si       4.15847136       3.82471433       7.65473956
Si      -1.65816529       5.51465558       7.90944213
Si       0.82467663       2.52205898       3.60939054
Si       2.10327327       5.33401000       7.52741768
Si      -1.52237455       7.46268551       6.57238260
Si       4.77684209       3.47871894       5.39023552
Si       1.52945126       4.59890705       2.42083948
Si       3.78588374       7.26183983       2.78973842
Si       4.03530779       6.83050905       0.34045088
Si       6.96807016       4.30203743       6.97949520
Si      -0.78403814       4.73108301       1.82151014
Si      -2.81174300       7.61865352       9.06785564
Si      -1.22390428       2.17383553       2.23228092
Si       4.82079600       6.09925527       8.13962286
Si       2.58967087       2.25010021       7.19333051
Si      -0.40857777       3.56975392       5.39309488
Si       0.48511892       5.92284199       5.79999820
Si       3.98922953       1.21346585       1.10931361
Si       6.14729882       4.07120456       3.50724681
Si       2.16517521       6.09997324       4.05481584
24
Lattice="8.743630779547908 1.1261337310739297 -0.5449225887726452 -3.2789950948641584 6.230298983177728 1.2129103386629936 -0.7363566621072959 1.0314992517239676 8.34002409801799" Properties=species:S:1:pos:R:3 unique_starting_index=90 config_type=initial n_minim_iter=20 stress="-0.007692862945332307 0.0002375148350587446 -0.0008530082530353271 0.0002375148350587446 -0.00029047598471662194 -0.0023161171505695303 -0.0008530082530353271 -0.0023161171505695303 -0.00406701377845568" pbc="T T T"
Si       6.09717020       1.36786133       5.14316440
Si       1.29490933       2.78388446       0.56558007
Si       5.74900552       6.00120010       2.31010246
Si       1.47969371       0.71975200       2.12657470
Si       4.19897784       3.83471764       7.63296918
Si      -1.76559203       5.48793643       7.81786448
Si       0.82073106       2.51186600       3.58753561
Si       2.08674375       5.27263963       7.47075929
Si      -1.55610960       7.44605308       6.48883049
Si       4.83279507       3.42280881       5.36393110
Si       1.51783212       4.52210144       2.37514575
Si       3.76728485       7.20269061       2.75909759
Si       4.02134889       6.74879096       0.34551861
Si       7.03283688       4.20497304       6.89280747
Si      -0.83568760       4.72683606       1.82926080
Si      -2.94685221       7.58151370       8.97216123
Si      -1.24224289       2.20549087       2.20939665
Si       4.87161956       6.10526162       8.12526445
Si       2.63705821       2.26089597       7.17671305
Si      -0.50532144       3.51995665       5.32559187
Si       0.41925361       5.92255838       5.77230463
Si       4.00705653       1.13494730       1.11735555
Si       6.25453312       4.05318222       3.54869568
Si       2.15315367       6.08079975       4.00847491
24
Lattice="8.982101881838522 1.0958872972595386 -0.4273555665065346 -3.3874377435558505 6.165932842024464 1.2580226554728418 -0.6710364735708663 1.1605355438266172 8.29425605677889" Properties=species:S:1:pos:R:3 unique_starting_index=90 config_type=initial n_minim_iter=21 stress="-0.0030874725151188525 -0.0008521283038308204 0.0018936635632956131 -0.0008521283038308204 0.002174935614720703 0.003246030527261285 0.0018936635632956131 0.003246030527261285 -0.0023058358366616467" pbc="T T T"
Si       6.30456517       1.40279167       5.18292996
Si       1.38464666       2.80641352       0.62012454
Si       5.90894002       5.96532783       2.44367956
Si       1.60613612       0.73982093       2.11968093
Si       4.38815885       3.97837647       7.73410660
Si      -1.80033694       5.50833304       7.81851608
Si       0.87457843       2.53957814       3.61816211
Si       2.18067749       5.28623141       7.52802093
Si      -1.50052949       7.46437438       6.51327985
Si       5.01742900       3.44833879       5.43951789
Si       1.56312660       4.44304644       2.40144737
Si       3.87131921       7.15492359       2.85508140
Si       4.09292302       6.64147560       0.46565526
Si       7.30361787       4.22628420       6.94466289
Si      -0.83102748       4.71356459       1.90922485
Si      -3.01331323       7.61574050       8.97761217
Si      -1.25285164       2.24188156       2.21996113
Si       5.08742252       6.20178280       8.25627740
Si       2.76516590       2.37042455       7.22303051
Si      -0.52909967       3.54329873       5.33885836
Si       0.43113292       5.94560895       5.82711300
Si       4.08360410       1.07667700       1.18632325
Si       6.49923468       4.08830644       3.70002041
Si       2.22117083       6.08308809       4.07706867
