20
Lattice="7.315579999999999 0.0 -2.7451552380194844e-95 0.0 7.32952 0.0 -9.017148532838639e-32 0.0 7.32952" Properties=species:S:1:pos:R:3 unique_starting_index=96 config_type=initial n_minim_iter=1 pbc="T T T"
Si       5.93122134       4.20426105       1.68850519
Si       1.38435866       3.12525895       1.68850519
Si       4.19626497       1.38699659       5.35326519
Si       3.11931503       5.94252341       5.35326519
Si       5.04214866       0.53950105       1.68850519
Si       2.27343134       6.79001895       1.68850519
Si       6.77710503       5.05175659       5.35326519
Si       0.53847497       2.27776341       5.35326519
Si       2.75563926       0.70786379       6.87560136
Si       4.55994074       6.62165621       6.87560136
Si       0.70651750       4.56862981       3.21084136
Si       6.60906250       2.76089019       3.21084136
Si       0.90215074       4.37262379       6.87560136
Si       6.41342926       2.95689621       6.87560136
Si       2.95127250       0.90386981       3.21084136
Si       4.36430750       6.42565019       3.21084136
Si      -0.00000000       0.00000000       7.02140310
Si      -0.00000000       7.32952000       3.35664310
Si       3.65779000       3.66476000       7.02140310
Si       3.65779000       3.66476000       3.35664310
20
Lattice="7.309910226617924 0.0 2.8750583791478833e-35 0.0 7.3237867179069225 0.0 -9.007279460717927e-32 0.0 7.321528485481811" Properties=species:S:1:pos:R:3 unique_starting_index=96 config_type=initial n_minim_iter=2 pbc="T T T"
Si       5.92651788       4.20104178       1.68655403
Si       1.38339235       3.12274494       1.68655403
Si       4.19308316       1.38601782       5.34731754
Si       3.11682707       5.93776890       5.34731754
Si       5.03834746       0.53914842       1.68655403
Si       2.27156277       6.78463830       1.68655403
Si       6.77178218       5.04791118       5.34731754
Si       0.53812804       2.27587554       5.34731754
Si       2.75329130       0.70732233       6.86822051
Si       4.55661893       6.61646439       6.86822051
Si       0.70598273       4.56526793       3.20745528
Si       6.60392750       2.75851879       3.20745528
Si       0.90166381       4.36921569       6.86822051
Si       6.40824641       2.95457103       6.86822051
Si       2.94897239       0.90337457       3.20745528
Si       4.36093784       6.42041215       3.20745528
Si      -0.00000000       0.00000000       7.01373796
Si      -0.00000000       7.32378672       3.35297391
Si       3.65495511       3.66189336       7.01373796
Si       3.65495511       3.66189336       3.35297391
20
Lattice="7.241583253441225 0.0 4.0229263618709254e-34 0.0 7.254651610948413 0.0 -8.885634553758401e-32 0.0 7.223031112435508" Properties=species:S:1:pos:R:3 unique_starting_index=96 config_type=initial n_minim_iter=3 pbc="T T T"
Si       5.86970654       4.16232761       1.66241602
Si       1.37187671       3.09232400       1.66241602
Si       4.15484606       1.37434348       5.27392141
Si       3.08673719       5.88030813       5.27392141
Si       4.99266834       0.53500181       1.66241602
Si       2.24891492       6.71964980       1.66241602
Si       6.70752882       5.00166928       5.27392141
Si       0.53405443       2.25298233       5.27392141
Si       2.72475806       0.70082445       6.77733871
Si       4.51682519       6.55382716       6.77733871
Si       0.69956995       4.52496413       3.16580937
Si       6.54201330       2.72968748       3.16580937
Si       0.89603356       4.32815025       6.77733871
Si       6.34554969       2.92650136       6.77733871
Si       2.92122168       0.89763832       3.16580937
Si       4.32036158       6.35701329       3.16580937
Si      -0.00000000       0.00000000       6.91926519
Si      -0.00000000       7.25465161       3.30775234
Si       3.62079163       3.62732581       6.91926519
Si       3.62079163       3.62732581       3.30775234
20
Lattice="7.24612529215692 0.0 7.93331458998217e-34 0.0 7.258670227401771 0.0 -8.852049658267755e-32 0.0 7.196771744649269" Properties=species:S:1:pos:R:3 unique_starting_index=96 config_type=initial n_minim_iter=4 pbc="T T T"
Si       5.87169866       4.16607352       1.65472070
Si       1.37442663       3.09259671       1.65472070
Si       4.15890450       1.37678818       5.25308806
Si       3.08722079       5.88188205       5.25308806
Si       4.99748928       0.53673841       1.65472070
Si       2.24863601       6.72193182       1.65472070
Si       6.71028343       5.00612329       5.25308806
Si       0.53584186       2.25254693       5.25308806
Si       2.72331801       0.70162549       6.75436832
Si       4.52280729       6.55704474       6.75436832
Si       0.70042638       4.53061656       3.15595804
Si       6.54569891       2.72805366       3.15595804
Si       0.89974464       4.33096060       6.75436832
Si       6.34638065       2.92770963       6.75436832
Si       2.92263626       0.90128145       3.15595804
Si       4.32348903       6.35738878       3.15595804
Si      -0.00000000       0.00000000       6.89409336
Si      -0.00000000       7.25867023       3.29571365
Si       3.62306265       3.62933511       6.89409336
Si       3.62306265       3.62933511       3.29571365
20
Lattice="7.360434708634834 -3.374583902495772e-53 1.1126094910607977e-32 0.0 7.356974442991114 -6.096110947398705e-18 -7.957237784844854e-32 -6.0961109473987035e-18 6.474138124554643" Properties=species:S:1:pos:R:3 unique_starting_index=96 config_type=initial n_minim_iter=5 pbc="T T T"
Si       5.91525946       4.26457418       1.44736320
Si       1.44517525       3.09240027       1.44736320
Si       4.26704834       1.44421567       4.68420765
Si       3.09338637       5.91275877       4.68420765
Si       5.12539261       0.58608695       1.44736320
Si       2.23504210       6.77088749       1.44736320
Si       6.77360372       5.12270289       4.68420765
Si       0.58683099       2.23427155       4.68420765
Si       2.67522506       0.72283491       6.11779491
Si       4.68520964       6.63413953       6.11779491
Si       0.72334927       4.68271363       2.88042998
Si       6.63708544       2.67426081       2.88042998
Si       1.00499229       4.40132213       6.11779491
Si       6.35544242       2.95565231       6.11779491
Si       2.95686808       1.00422641       2.88042998
Si       4.40356663       6.35274803       2.88042998
Si      -0.00000000       0.00000000       6.20142177
Si      -0.00000000       7.35697444       2.96445245
Si       3.68021735       3.67848722       6.20142177
Si       3.68021735       3.67848722       2.96445245
20
Lattice="7.529993863594294 -3.2294496615790103e-53 1.1133046985901508e-32 3.1286969621774636e-52 7.54561433726501 -6.433478839332921e-18 -8.173525850486615e-32 -6.25242109004094e-18 6.832426605525277" Properties=species:S:1:pos:R:3 unique_starting_index=96 config_type=initial n_minim_iter=6 pbc="T T T"
Si       6.02000431       4.41849749       1.53740327
Si       1.50998956       3.12711685       1.53740327
Si       4.40960773       1.51263407       4.95347860
Si       3.12038613       6.03298026       4.95347860
Si       5.27498649       0.64569032       1.53740327
Si       2.25500738       6.89992402       1.53740327
Si       6.88538307       5.28544124       4.95347860
Si       0.64461080       2.26017310       4.95347860
Si       2.69306333       0.76167161       6.44682076
Si       4.83693053       6.78394272       6.44682076
Si       0.76012886       4.84690028       3.03069247
Si       6.76986500       2.69871405       3.03069247
Si       1.07193360       4.53447878       6.44682076
Si       6.45806027       3.01113556       6.44682076
Si       3.00486807       1.07409312       3.03069247
Si       4.52512579       6.47152122       3.03069247
Si      -0.00000000       0.00000000       6.54333631
Si      -0.00000000       7.54561434       3.12720338
Si       3.76499693       3.77280717       6.54333631
Si       3.76499693       3.77280717       3.12720338
20
Lattice="7.212034695348469 -1.2477575555482415e-50 1.1508458677877594e-32 -4.921919604563319e-52 7.226348452565978 -2.9081021786636655e-17 -7.744288675641094e-32 -2.8896557576416145e-17 6.555090299984151" Properties=species:S:1:pos:R:3 unique_starting_index=96 config_type=initial n_minim_iter=7 pbc="T T T"
Si       5.76500172       4.23148974       1.47555507
Si       1.44703297       2.99485871       1.47555507
Si       4.22337186       1.44942743       4.75296813
Si       2.98866283       5.77692102       4.75296813
Si       5.05305032       0.61831552       1.47555507
Si       2.15898437       6.60803294       1.47555507
Si       6.59468018       5.06260166       4.75296813
Si       0.61735452       2.16374679       4.75296813
Si       2.57867954       0.72923702       6.18473722
Si       4.63335515       6.49711143       6.18473722
Si       0.72784082       4.64247716       2.90725280
Si       6.48419388       2.58387129       2.90725280
Si       1.02733780       4.34241125       6.18473722
Si       6.18469689       2.88393720       6.18473722
Si       2.87817653       1.02930294       2.90725280
Si       4.33385817       6.19704552       2.90725280
Si      -0.00000000       0.00000000       6.27743721
Si      -0.00000000       7.22634845       2.99997538
Si       3.60601735       3.61317423       6.27743721
Si       3.60601735       3.61317423       2.99997538
20
Lattice="7.1957588178932586 -3.3566007345150392e-50 1.281987688077762e-32 -6.402768644589653e-51 7.2088435709305285 -5.585777920536634e-17 -7.593651258020874e-32 -5.562210947098678e-17 6.550854301117828" Properties=species:S:1:pos:R:3 unique_starting_index=96 config_type=initial n_minim_iter=8 pbc="T T T"
Si       5.75080552       4.22305159       1.47494417
Si       1.44495330       2.98579198       1.47494417
Si       4.21567820       1.44709646       4.75023424
Si       2.98008062       5.76174711       4.75023424
Si       5.04283271       0.61862981       1.47494417
Si       2.15292611       6.59021376       1.47494417
Si       6.57796003       5.05151825       4.75023424
Si       0.61779879       2.15732532       4.75023424
Si       2.57123984       0.72814432       6.18043396
Si       4.62451898       6.48069925       6.18043396
Si       0.72688037       4.63283119       2.90504292
Si       6.46887845       2.57601238       2.90504292
Si       1.02663957       4.33256610       6.18043396
Si       6.16911925       2.87627747       6.18043396
Si       2.87099904       1.02840941       2.90504292
Si       4.32475978       6.18043416       2.90504292
Si      -0.00000000       0.00000000       6.27333375
Si      -0.00000000       7.20884357       2.99799878
Si       3.59787941       3.60442179       6.27333375
Si       3.59787941       3.60442179       2.99799878
20
Lattice="7.19237439351904 -3.355970813508108e-50 1.4138179861044378e-32 -1.7653592133757603e-50 7.204519774174665 -5.590339632129147e-17 -7.458260201379861e-32 -5.558874785145396e-17 6.556204157204372" Properties=species:S:1:pos:R:3 unique_starting_index=96 config_type=initial n_minim_iter=9 pbc="T T T"
Si       5.74706724       4.22215319       1.47642657
Si       1.44530716       2.98236658       1.47642657
Si       4.21535036       1.44725710       4.75438737
Si       2.97702403       5.75726268       4.75438737
Si       5.04149435       0.61989331       1.47642657
Si       2.15088004       6.58462647       1.47642657
Si       6.57321123       5.04951699       4.75438737
Si       0.61916317       2.15500279       4.75438737
Si       2.56859771       0.72830987       6.18522780
Si       4.62377668       6.47620990       6.18522780
Si       0.72714677       4.63146931       2.90714270
Si       6.46522762       2.57305046       2.90714270
Si       1.02758949       4.33056976       6.18522780
Si       6.16478491       2.87395002       6.18522780
Si       2.86904042       1.02920942       2.90714270
Si       4.32333397       6.17531035       2.90714270
Si      -0.00000000       0.00000000       6.27842797
Si      -0.00000000       7.20451977       3.00042520
Si       3.59618720       3.60225989       6.27842797
Si       3.59618720       3.60225989       3.00042520
20
Lattice="7.181226794405248 9.087602341518371e-49 1.5300408024397235e-32 1.1205357343829223e-48 7.191619737743415 -2.403553995354249e-16 -7.330272752218545e-32 -2.394281407834169e-16 6.563654187569519" Properties=species:S:1:pos:R:3 unique_starting_index=96 config_type=initial n_minim_iter=10 pbc="T T T"
Si       5.73602517       4.21796853       1.47867824
Si       1.44520162       2.97365121       1.47867824
Si       4.21223155       1.44678976       4.76035614
Si       2.96899524       5.74482998       4.76035614
Si       5.03581502       0.62215866       1.47867824
Si       2.14541177       6.56946108       1.47867824
Si       6.55960864       5.04259963       4.76035614
Si       0.62161816       2.14902011       4.76035614
Si       2.56166809       0.72824503       6.19173184
Si       4.61955871       6.46337471       6.19173184
Si       0.72726998       4.62609486       2.90988596
Si       6.45395681       2.56552488       2.90988596
Si       1.02894531       4.32405490       6.19173184
Si       6.15228149       2.86756484       6.19173184
Si       2.86334341       1.03028499       2.90988596
Si       4.31788338       6.16133475       2.90988596
Si      -0.00000000       0.00000000       6.28550000
Si      -0.00000000       7.19161974       3.00378603
Si       3.59061340       3.59580987       6.28550000
Si       3.59061340       3.59580987       3.00378603
20
Lattice="6.845219823483068 8.524287434724547e-49 1.043983843335738e-32 1.2422898975177879e-48 6.811958613135371 -2.49821692383449e-16 -7.485807651607783e-32 -2.2678821257425825e-16 6.822160852336728" Properties=species:S:1:pos:R:3 unique_starting_index=96 config_type=initial n_minim_iter=11 pbc="T T T"
Si       5.40054443       4.10193189       1.55598724
Si       1.44467539       2.71002672       1.55598724
Si       4.12348962       1.43676438       4.96669099
Si       2.72173020       5.37519423       4.96669099
Si       4.86728530       0.69595258       1.55598724
Si       1.97793452       6.11600603       1.55598724
Si       6.14434011       4.84274369       4.96669099
Si       0.70087971       1.96921493       4.96669099
Si       2.34925752       0.72861035       6.41801377
Si       4.49596231       6.08334826       6.41801377
Si       0.73254138       4.47310401       3.00593550
Si       6.11267844       2.33885460       3.00593550
Si       1.07335239       4.13458966       6.41801377
Si       5.77186743       2.67736895       6.41801377
Si       2.69006853       1.06712471       3.00593550
Si       4.15515129       5.74483391       3.00593550
Si      -0.00000000       0.00000000       6.53105619
Si      -0.00000000       6.81195861       3.12050351
Si       3.42260991       3.40597931       6.53105619
Si       3.42260991       3.40597931       3.12050351
20
Lattice="7.538219307528746 9.47347324060933e-49 1.5674337097323933e-32 1.1959086062765952e-48 7.532263475743472 -2.5914698227152905e-16 -7.760563686655625e-32 -2.5076907646037175e-16 7.076816991298045" Properties=species:S:1:pos:R:3 unique_starting_index=96 config_type=initial n_minim_iter=12 pbc="T T T"
Si       5.94375940       4.54426331       1.61140342
Si       1.59445991       2.98800016       1.61140342
Si       4.54934317       1.59226236       5.14956838
Si       2.98887614       5.94000112       5.14956838
Si       5.36356956       0.77813157       1.61140342
Si       2.17464975       6.75413190       1.61140342
Si       6.75798580       5.35839409       5.14956838
Si       0.78023351       2.17386938       5.14956838
Si       2.58504789       0.80792629       6.65959010
Si       4.95317142       6.72433719       6.65959010
Si       0.80911386       4.94828727       3.12074085
Si       6.72910545       2.58397620       3.12074085
Si       1.18406176       4.57405802       6.65959010
Si       6.35415754       2.95820545       6.65959010
Si       2.95999580       1.18215554       3.12074085
Si       4.57822351       6.35010794       3.12074085
Si      -0.00000000       0.00000000       6.77544195
Si      -0.00000000       7.53226348       3.23754308
Si       3.76910965       3.76613174       6.77544195
Si       3.76910965       3.76613174       3.23754308
20
Lattice="7.05098965103868 8.856732373287455e-49 1.5136076104543128e-32 1.0997974620491122e-48 7.045919075774965 -2.418180679434711e-16 -7.208969105859642e-32 -2.3457737838521404e-16 6.603596912551167" Properties=species:S:1:pos:R:3 unique_starting_index=96 config_type=initial n_minim_iter=13 pbc="T T T"
Si       5.55887312       4.25018333       1.50412647
Si       1.49211653       2.79573575       1.50412647
Si       4.25462710       1.49016505       4.80569837
Si       2.79636255       5.55575403       4.80569837
Si       5.01761135       0.72722379       1.50412647
Si       2.03337830       6.31869528       1.50412647
Si       6.32185738       5.01312458       4.80569837
Si       0.72913227       2.03279449       4.80569837
Si       2.41762309       0.75556975       6.21396355
Si       4.63336656       6.29034933       6.21396355
Si       0.75662545       4.62913083       2.91176526
Si       6.29436420       2.41678825       2.91176526
Si       1.10787174       4.27852929       6.21396355
Si       5.94311792       2.76738979       6.21396355
Si       2.76886938       1.10617129       2.91176526
Si       4.28212028       5.93974779       2.91176526
Si      -0.00000000       0.00000000       6.32202262
Si      -0.00000000       7.04591908       3.02069911
Si       3.52549483       3.52295954       6.32202262
Si       3.52549483       3.52295954       3.02069911
20
Lattice="7.020153736592534 1.638498930977085e-48 1.6053280848886038e-32 1.8922486767186958e-48 7.016375071929617 -2.9365391159647977e-16 -7.077435067217449e-32 -2.8694458548264004e-16 6.565891366008996" Properties=species:S:1:pos:R:3 unique_starting_index=96 config_type=initial n_minim_iter=14 pbc="T T T"
Si       5.53398553       4.23327406       1.49565452
Si       1.48616821       2.78310101       1.49565452
Si       4.23691985       1.48449162       4.77837321
Si       2.78323388       5.53188345       4.77837321
Si       4.99624508       0.72508652       1.49565452
Si       2.02390866       6.29128855       1.49565452
Si       6.29331075       4.99267915       4.77837321
Si       0.72684299       2.02369592       4.77837321
Si       2.40671082       0.75276086       6.17840361
Si       4.61344291       6.26361421       6.17840361
Si       0.75366922       4.61007756       2.89508451
Si       6.26648452       2.40629752       2.89508451
Si       1.10336605       4.26094839       6.17840361
Si       5.91678769       2.75542668       6.17840361
Si       2.75640765       1.10189002       2.89508451
Si       4.26374609       5.91448505       2.89508451
Si      -0.00000000       0.00000000       6.28582787
Si      -0.00000000       7.01637507       3.00335454
Si       3.51007687       3.50818754       6.28582787
Si       3.51007687       3.50818754       3.00335454
