22
Lattice="9.308390732530798 -3.140746655087722 -1.1264495177406877 -8.71722406873887 9.41471277452919 -1.8064770142170645 -4.955045492557086 -1.2287717218713976 11.714007831839336" Properties=species:S:1:pos:R:3 unique_starting_index=18 config_type=initial n_minim_iter=1 energy=-4253.740767362088 free_energy=-4253.740767362088 pbc="T T T"
Si      -1.10191262       6.16174051      -0.09248172
Si       1.16263576       0.13305725       9.49889293
Si      -4.17489474      -1.17710505       9.43705161
Si       0.81714917       0.39427400      10.53078532
Si      -8.45004295       4.12061396      10.70836280
Si       6.11778853       0.82512420      -1.42283808
Si       3.46785041       0.37966146      -1.79206102
Si      -1.59982128       0.13068760       9.02238157
Si      -1.79015019       0.03700489       9.92985591
Si      -8.34090230       2.83054560       5.21275125
Si       1.16192770      -0.17501401       3.12677136
Si      -6.15411726       4.70839997       5.57794452
Si      -4.10393640      -0.74673791       8.53260881
Si      -3.79052645       5.62701118      -0.13457711
Si       0.64458556       0.62981152       4.11261286
Si      -0.77026078       5.29918272      -0.26133630
Si      -1.65586079      -0.74090187       3.53238952
Si       5.49875542      -4.84070960       7.53420903
Si       0.83731739       0.76241836       3.14666871
Si      -5.85007822       3.73815672       5.69252996
Si      -5.78538032       4.19433642       4.78048087
Si      -1.29877316      -0.75540409       9.01232949
22
Lattice="9.308409221012647 -3.1408021923455873 -1.1265281096758142 -8.71726574474312 9.414703713723265 -1.8063149277612844 -4.955057885106771 -1.2285407993453807 11.71409959924912" Properties=species:S:1:pos:R:3 unique_starting_index=18 config_type=initial n_minim_iter=2 stress="2.155966102828535e-06 7.905653972136916e-06 -4.2442276530085395e-05 7.905653972136916e-06 -1.646949485963827e-05 -2.5249161327094277e-05 -4.2442276530085395e-05 -2.5249161327094277e-05 7.024297797586278e-05" pbc="T T T"
Si      -1.10191937       6.16173664      -0.09239466
Si       1.16263512       0.13322146       9.49897295
Si      -4.17488904      -1.17693442       9.43713437
Si       0.81714852       0.39445072      10.53087603
Si      -8.45004248       4.12083755      10.70856538
Si       6.11779473       0.82509202      -1.42282323
Si       3.46783872       0.37961815      -1.79206866
Si      -1.59981429       0.13086859       9.02245442
Si      -1.79019976       0.03717505       9.92994097
Si      -8.34093556       2.83065560       5.21285872
Si       1.16189010      -0.17497704       3.12678136
Si      -6.15412662       4.70852279       5.57808815
Si      -4.10399953      -0.74657018       8.53268272
Si      -3.79056232       5.62700247      -0.13448924
Si       0.64454638       0.62986401       4.11265926
Si      -0.77029579       5.29917706      -0.26122464
Si      -1.65587815      -0.74086263       3.53242762
Si       5.49872353      -4.84056871       7.53421415
Si       0.83732173       0.76245694       3.14670845
Si      -5.85008784       3.73829162       5.69263183
Si      -5.78534420       4.19446020       4.78060815
Si      -1.29875983      -0.75521412       9.01238841
22
Lattice="9.308403328250117 -3.1408456632531614 -1.1264572666978228 -8.71730202318645 9.414740588036803 -1.8062861941289678 -4.9549483223151185 -1.2284301997311433 11.713886556394016" Properties=species:S:1:pos:R:3 unique_starting_index=18 config_type=initial n_minim_iter=3 stress="0.00035304111629074375 0.00012080249837827735 0.00013682275577915658 0.00012080249837827735 4.216707231828766e-05 4.5882786499027166e-05 0.00013682275577915658 4.5882786499027166e-05 -0.0001303949084841059" pbc="T T T"
Si      -1.10192992       6.16175636      -0.09235581
Si       1.16272266       0.13330120       9.49885078
Si      -4.17479692      -1.17685268       9.43696761
Si       0.81723715       0.39453940      10.53073869
Si      -8.44994558       4.12096518      10.70838762
Si       6.11777523       0.82507039      -1.42273484
Si       3.46781844       0.37959759      -1.79201176
Si      -1.59973001       0.13095729       9.02231679
Si      -1.79011621       0.03726519       9.92978500
Si      -8.34089239       2.83072707       5.21273770
Si       1.16191633      -0.17495626       3.12674606
Si      -6.15409002       4.70860010       5.57799573
Si      -4.10392285      -0.74647839       8.53253014
Si      -3.79058200       5.62702386      -0.13447916
Si       0.64457617       0.62989508       4.11261470
Si      -0.77031277       5.29919588      -0.26117103
Si      -1.65584580      -0.74083904       3.53236356
Si       5.49879857      -4.84051983       7.53413381
Si       0.83735879       0.76248111       3.14668234
Si      -5.85004859       3.73836839       5.69252391
Si      -5.78530458       4.19453340       4.78052259
Si      -1.29867493      -0.75512742       9.01224782
22
Lattice="9.30837826691606 -3.140865522060671 -1.1264488363792278 -8.717293270980155 9.414756933649445 -1.806273889619495 -4.9549159510713325 -1.2283990990027986 11.713847770694626" Properties=species:S:1:pos:R:3 unique_starting_index=18 config_type=initial n_minim_iter=4 stress="-0.000138395353728964 -4.3478136583259635e-05 3.973965773130654e-05 -4.3478136583259635e-05 -1.9787646369282393e-05 1.517390494422546e-05 3.973965773130654e-05 1.517390494422546e-05 -0.00021522141640381925" pbc="T T T"
Si      -1.10193568       6.16176057      -0.09234654
Si       1.16273191       0.13331802       9.49882645
Si      -4.17476919      -1.17682955       9.43693822
Si       0.81724589       0.39455841      10.53071175
Si      -8.44991037       4.12100288      10.70835928
Si       6.11775216       0.82505842      -1.42271963
Si       3.46780416       0.37958907      -1.79200246
Si      -1.59971283       0.13097965       9.02229103
Si      -1.79009961       0.03728774       9.92975551
Si      -8.34086451       2.83075202       5.21271914
Si       1.16191677      -0.17495294       3.12673862
Si      -6.15407315       4.70862351       5.57798198
Si      -4.10389847      -0.74645183       8.53250326
Si      -3.79058175       5.62703155      -0.13447441
Si       0.64457691       0.62990091       4.11260614
Si      -0.77032016       5.29920001      -0.26115769
Si      -1.65583544      -0.74083213       3.53235236
Si       5.49879894      -4.84051308       7.53411603
Si       0.83736224       0.76248525       3.14667748
Si      -5.85003104       3.73839166       5.69250599
Si      -5.78528648       4.19455594       4.78050945
Si      -1.29865765      -0.75510555       9.01222135
22
Lattice="9.308385854361095 -3.141010570700642 -1.1264910520303912 -8.717375301686857 9.414909709225503 -1.8061744019042352 -4.954836298642527 -1.228133726263012 11.714080223473974" Properties=species:S:1:pos:R:3 unique_starting_index=18 config_type=initial n_minim_iter=5 stress="7.027371825538256e-07 -4.2440184332716944e-05 1.7179812030263465e-05 -4.2440184332716944e-05 0.00012298032272214704 1.2678808745579976e-05 1.7179812030263465e-05 1.2678808745579976e-05 4.126939722882895e-05" pbc="T T T"
Si      -1.10197244       6.16182750      -0.09225558
Si       1.16279380       0.13349824       9.49903799
Si      -4.17470000      -1.17664739       9.43715757
Si       0.81726997       0.39475524      10.53095440
Si      -8.44984783       4.12133576      10.70867365
Si       6.11771267       0.82499128      -1.42267519
Si       3.46777768       0.37953666      -1.79202563
Si      -1.59965204       0.13119875       9.02248949
Si      -1.79006274       0.03750054       9.92996284
Si      -8.34084765       2.83094966       5.21285687
Si       1.16193886      -0.17491263       3.12680944
Si      -6.15410142       4.70883418       5.57816428
Si      -4.10383795      -0.74620478       8.53269735
Si      -3.79065368       5.62710844      -0.13440947
Si       0.64457477       0.62996154       4.11272109
Si      -0.77037088       5.29926879      -0.26102007
Si      -1.65581691      -0.74078819       3.53243598
Si       5.49887608      -4.84041641       7.53428618
Si       0.83742001       0.76253405       3.14678061
Si      -5.85005178       3.73859829       5.69264291
Si      -5.78528243       4.19476470       4.78064919
Si      -1.29859752      -0.75489276       9.01241475
22
Lattice="9.308368714901146 -3.1409108405057578 -1.1265152500966615 -8.717322977578752 9.41468793423172 -1.8061286480476613 -4.954858521661117 -1.228096453627325 11.714077694049482" Properties=species:S:1:pos:R:3 unique_starting_index=18 config_type=initial n_minim_iter=6 stress="1.7607355560475867e-05 2.5139452567968057e-05 -3.526822917101291e-05 2.5139452567968057e-05 -6.565457766190935e-05 -2.3494619894652244e-05 -3.526822917101291e-05 -2.3494619894652244e-05 -3.0368453686497338e-05" pbc="T T T"
Si      -1.10193647       6.16170124      -0.09223692
Si       1.16278855       0.13353392       9.49902528
Si      -4.17473080      -1.17662696       9.43716549
Si       0.81724898       0.39478540      10.53094089
Si      -8.44983165       4.12124913      10.70869756
Si       6.11770989       0.82500404      -1.42267311
Si       3.46777731       0.37954546      -1.79203094
Si      -1.59965914       0.13122723       9.02248422
Si      -1.79007889       0.03752472       9.92995299
Si      -8.34084093       2.83086880       5.21287439
Si       1.16194160      -0.17489612       3.12680462
Si      -6.15408773       4.70873180       5.57818170
Si      -4.10385187      -0.74616689       8.53270747
Si      -3.79062978       5.62698187      -0.13439114
Si       0.64456618       0.62995692       4.11271863
Si      -0.77034232       5.29916685      -0.26098703
Si      -1.65583302      -0.74077846       3.53243872
Si       5.49883645      -4.84025796       7.53427224
Si       0.83743234       0.76252704       3.14678262
Si      -5.85004398       3.73851925       5.69264833
Si      -5.78526233       4.19468254       4.78066098
Si      -1.29861320      -0.75484401       9.01241139
22
Lattice="9.308240373490026 -3.140956141066551 -1.1264265359613794 -8.717284670136594 9.414622165542777 -1.8061010263876205 -4.954550333175915 -1.227769427998788 11.714176086861608" Properties=species:S:1:pos:R:3 unique_starting_index=18 config_type=initial n_minim_iter=7 stress="-4.793640838047509e-05 2.8172987656314e-05 4.91643890786713e-05 2.8172987656314e-05 -3.8092606127167575e-05 5.5619412308116005e-05 4.91643890786713e-05 5.5619412308116005e-05 6.0253527898108474e-05" pbc="T T T"
Si      -1.10193714       6.16164556      -0.09209863
Si       1.16301265       0.13376354       9.49922504
Si      -4.17455501      -1.17640065       9.43726812
Si       0.81744688       0.39505327      10.53115600
Si      -8.44950110       4.12151781      10.70884022
Si       6.11757604       0.82494158      -1.42253967
Si       3.46768251       0.37949375      -1.79199346
Si      -1.59943937       0.13150846       9.02262370
Si      -1.78984823       0.03780335       9.93008981
Si      -8.34065294       2.83099237       5.21286652
Si       1.16204044      -0.17483775       3.12688796
Si      -6.15390500       4.70886464       5.57827148
Si      -4.10362583      -0.74586959       8.53281651
Si      -3.79060981       5.62696872      -0.13434295
Si       0.64462561       0.63002491       4.11282033
Si      -0.77034273       5.29911261      -0.26082964
Si      -1.65577100      -0.74068917       3.53246821
Si       5.49891991      -4.84001072       7.53443758
Si       0.83750913       0.76257295       3.14688805
Si      -5.84985852       3.73866141       5.69270312
Si      -5.78508389       4.19484242       4.78071872
Si      -1.29840513      -0.75457283       9.01255786
22
Lattice="9.308306606247253 -3.141033647974526 -1.1264333070782964 -8.717385418031606 9.414731280191328 -1.8060882988264209 -4.95458271850352 -1.2277521806986194 11.714137594467386" Properties=species:S:1:pos:R:3 unique_starting_index=18 config_type=initial n_minim_iter=8 stress="4.532295130717974e-05 -3.314709628566745e-05 -5.1382084111637736e-05 -3.314709628566745e-05 3.6619353398661324e-05 9.73830623967447e-06 -5.1382084111637736e-05 9.73830623967447e-06 -3.996863521928125e-05" pbc="T T T"
Si      -1.10197644       6.16167817      -0.09209935
Si       1.16302498       0.13374217       9.49918094
Si      -4.17460487      -1.17639586       9.43725080
Si       0.81742738       0.39504131      10.53110386
Si      -8.44957519       4.12158252      10.70880608
Si       6.11759122       0.82490436      -1.42254120
Si       3.46768551       0.37947446      -1.79199439
Si      -1.59945688       0.13153330       9.02258609
Si      -1.78987949       0.03781282       9.93004248
Si      -8.34072573       2.83104524       5.21284953
Si       1.16206514      -0.17485993       3.12687596
Si      -6.15397460       4.70892251       5.57824689
Si      -4.10365516      -0.74582809       8.53281064
Si      -3.79066634       5.62703122      -0.13434947
Si       0.64461097       0.63000799       4.11279707
Si      -0.77036920       5.29913251      -0.26081463
Si      -1.65579263      -0.74068904       3.53246358
Si       5.49896204      -4.84005960       7.53440970
Si       0.83751054       0.76255776       3.14687584
Si      -5.84991767       3.73870852       5.69267303
Si      -5.78513405       4.19491908       4.78069603
Si      -1.29841682      -0.75456437       9.01253102
22
Lattice="9.308102584789077 -3.1409413681070366 -1.1261558701378989 -8.717242226514745 9.41459991300062 -1.8064439579997713 -4.95416717574911 -1.2278587440831423 11.714186668756636" Properties=species:S:1:pos:R:3 unique_starting_index=18 config_type=initial n_minim_iter=9 stress="-1.1569670458902503e-05 1.230608866412521e-05 2.001995413498024e-05 1.230608866412521e-05 1.5073015672519986e-05 -4.0196010628191076e-05 2.001995413498024e-05 -4.0196010628191076e-05 2.0939292129607544e-06" pbc="T T T"
Si      -1.10189932       6.16159203      -0.09217801
Si       1.16333309       0.13364954       9.49935563
Si      -4.17428919      -1.17647716       9.43732203
Si       0.81770563       0.39496197      10.53126706
Si      -8.44907432       4.12139437      10.70869249
Si       6.11742493       0.82492927      -1.42239403
Si       3.46752307       0.37950157      -1.79192301
Si      -1.59916180       0.13150489       9.02266611
Si      -1.78959917       0.03773041       9.93012442
Si      -8.34043896       2.83089155       5.21265158
Si       1.16218837      -0.17491355       3.12696490
Si      -6.15369883       4.70878447       5.57809851
Si      -4.10335477      -0.74584869       8.53289629
Si      -3.79057279       5.62698166      -0.13452811
Si       0.64471389       0.62994299       4.11286316
Si      -0.77030081       5.29902808      -0.26084315
Si      -1.65568812      -0.74072274       3.53249917
Si       5.49905726      -4.83998663       7.53472302
Si       0.83760387       0.76249772       3.14694549
Si      -5.84964008       3.73856376       5.69253057
Si      -5.78484869       4.19486458       4.78055221
Si      -1.29813748      -0.75460605       9.01265425
22
Lattice="9.308082785544906 -3.140948585075724 -1.1261656487999274 -8.717266514977432 9.414449214926943 -1.8063330748408417 -4.954072822151603 -1.2275925055181356 11.714230758997664" Properties=species:S:1:pos:R:3 unique_starting_index=18 config_type=initial n_minim_iter=10 stress="1.0404234260909513e-05 -1.1858119319411264e-05 -9.45383182011682e-06 -1.1858119319411264e-05 -1.839024477342058e-05 3.749904919148679e-05 -9.45383182011682e-06 3.749904919148679e-05 4.525595225185486e-06" pbc="T T T"
Si      -1.10190566       6.16147485      -0.09207083
Si       1.16341767       0.13380413       9.49944975
Si      -4.17422310      -1.17623918       9.43736899
Si       0.81773982       0.39517409      10.53135421
Si      -8.44896776       4.12155982      10.70880599
Si       6.11738159       0.82484856      -1.42235915
Si       3.46747734       0.37944899      -1.79189529
Si      -1.59908597       0.13172346       9.02273320
Si      -1.78954747       0.03794086       9.93019154
Si      -8.34039493       2.83095028       5.21269110
Si       1.16223898      -0.17488314       3.12700015
Si      -6.15368373       4.70883307       5.57819773
Si      -4.10330860      -0.74561701       8.53297895
Si      -3.79058978       5.62692128      -0.13446124
Si       0.64473756       0.62999705       4.11291082
Si      -0.77030485       5.29889759      -0.26072651
Si      -1.65567934      -0.74063654       3.53251288
Si       5.49910988      -4.83975004       7.53470210
Si       0.83764016       0.76252579       3.14699373
Si      -5.84960775       3.73861916       5.69258693
Si      -5.78480203       4.19494900       4.78063105
Si      -1.29806209      -0.75438545       9.01272254
22
Lattice="9.30796399779362 -3.1408797852108834 -1.1260106677427115 -8.717155080240257 9.41441370830275 -1.8065589751619207 -4.9538760012572745 -1.227746169615346 11.71422649523496" Properties=species:S:1:pos:R:3 unique_starting_index=18 config_type=initial n_minim_iter=11 stress="-2.8024787477770104e-05 4.7208028456121986e-05 -1.1613427126163072e-05 4.7208028456121986e-05 4.540563302716033e-05 -4.7169927562377955e-06 -1.1613427126163072e-05 -4.7169927562377955e-06 -1.1724808081925391e-05" pbc="T T T"
Si      -1.10183799       6.16143643      -0.09217717
Si       1.16354878       0.13368895       9.49950447
Si      -4.17408671      -1.17635008       9.43736511
Si       0.81785395       0.39506256      10.53139227
Si      -8.44868257       4.12138681      10.70869260
Si       6.11729568       0.82488837      -1.42228691
Si       3.46741676       0.37949101      -1.79184125
Si      -1.59893437       0.13165813       9.02275506
Si      -1.78939859       0.03784975       9.93020764
Si      -8.34022920       2.83080858       5.21257110
Si       1.16228444      -0.17494284       3.12703439
Si      -6.15353924       4.70873127       5.57810732
Si      -4.10318893      -0.74568341       8.53301229
Si      -3.79053761       5.62692514      -0.13460046
Si       0.64478924       0.62994599       4.11292881
Si      -0.77026309       5.29884597      -0.26076875
Si      -1.65564277      -0.74069539       3.53251293
Si       5.49913491      -4.83976062       7.53481736
Si       0.83771324       0.76248206       3.14700910
Si      -5.84945087       3.73850855       5.69246661
Si      -5.78465416       4.19489418       4.78052829
Si      -1.29792853      -0.75445833       9.01277071
22
Lattice="9.308008968750965 -3.140920598234603 -1.1259227359476938 -8.717277258220932 9.41439170855224 -1.8066771102084231 -4.953777248022787 -1.227731728838906 11.714241168228838" Properties=species:S:1:pos:R:3 unique_starting_index=18 config_type=initial n_minim_iter=12 stress="2.639509484147983e-05 -4.778929228702863e-05 3.8009402356898235e-05 -4.778929228702863e-05 -4.580607380513853e-05 -3.519940467861543e-05 3.8009402356898235e-05 -3.519940467861543e-05 1.7863792618320033e-05" pbc="T T T"
Si      -1.10188098       6.16136331      -0.09222393
Si       1.16363946       0.13363459       9.49955848
Si      -4.17401542      -1.17633116       9.43737290
Si       0.81794224       0.39501657      10.53144387
Si      -8.44863334       4.12137221      10.70865097
Si       6.11729144       0.82482877      -1.42223660
Si       3.46740301       0.37946518      -1.79181293
Si      -1.59886169       0.13165448       9.02278504
Si      -1.78932055       0.03784017       9.93023657
Si      -8.34023229       2.83081440       5.21251348
Si       1.16231939      -0.17497658       3.12706183
Si      -6.15355506       4.70871115       5.57807808
Si      -4.10312944      -0.74564383       8.53303650
Si      -3.79060373       5.62690658      -0.13466758
Si       0.64481669       0.62991057       4.11294894
Si      -0.77030464       5.29877261      -0.26078407
Si      -1.65561619      -0.74068861       3.53251695
Si       5.49926401      -4.83976109       7.53489577
Si       0.83774937       0.76244556       3.14702699
Si      -5.84944429       3.73849456       5.69241641
Si      -5.78466597       4.19489312       4.78048581
Si      -1.29785210      -0.75445704       9.01281240
22
Lattice="9.307954268930095 -3.1408938128505013 -1.1259110243355102 -8.717226480144094 9.414303255770577 -1.8066392750258113 -4.953701758841694 -1.2276290867546282 11.714245600842395" Properties=species:S:1:pos:R:3 unique_starting_index=18 config_type=initial n_minim_iter=13 stress="-3.4297895432199334e-06 5.546795063417956e-06 3.7479831260237686e-07 5.546795063417956e-06 -3.227233269136525e-06 8.233305614814973e-06 3.7479831260237686e-07 8.233305614814973e-06 3.7260927664051558e-06" pbc="T T T"
Si      -1.10181286       6.16127998      -0.09222138
Si       1.16368851       0.13369082       9.49959877
Si      -4.17397558      -1.17624501       9.43736018
Si       0.81798873       0.39512778      10.53148467
Si      -8.44849239       4.12141679      10.70867481
Si       6.11724749       0.82481207      -1.42218334
Si       3.46735001       0.37945605      -1.79178393
Si      -1.59882092       0.13177521       9.02281767
Si      -1.78927969       0.03795146       9.93025874
Si      -8.34017143       2.83078251       5.21252258
Si       1.16232662      -0.17498660       3.12708458
Si      -6.15350379       4.70871822       5.57816970
Si      -4.10308456      -0.74548393       8.53308778
Si      -3.79057998       5.62688826      -0.13467298
Si       0.64481476       0.62991323       4.11296122
Si      -0.77026238       5.29866561      -0.26071320
Si      -1.65560567      -0.74065754       3.53251330
Si       5.49927734      -4.83959114       7.53483575
Si       0.83779567       0.76243823       3.14704513
Si      -5.84936748       3.73850690       5.69240514
Si      -5.78461559       4.19493169       4.78051810
Si      -1.29783757      -0.75433749       9.01285415
22
Lattice="9.307977813292126 -3.140951340672884 -1.1258213610608494 -8.717324236137518 9.41433105803851 -1.8067177932493919 -4.953587892051761 -1.2275867252512513 11.71417682576176" Properties=species:S:1:pos:R:3 unique_starting_index=18 config_type=initial n_minim_iter=14 stress="-4.046892180485507e-06 3.0231980874906414e-06 8.713107796305471e-06 3.0231980874906414e-06 -3.850963926291488e-06 -9.36170473667436e-06 8.713107796305471e-06 -9.36170473667436e-06 2.6150426808575495e-06" pbc="T T T"
Si      -1.10179153       6.16115396      -0.09237507
Si       1.16378502       0.13361617       9.49960752
Si      -4.17386428      -1.17626412       9.43727684
Si       0.81808837       0.39515716      10.53147631
Si      -8.44840573       4.12141689      10.70852956
Si       6.11718122       0.82475941      -1.42204567
Si       3.46727431       0.37946596      -1.79171756
Si      -1.59873195       0.13190272       9.02279520
Si      -1.78920052       0.03799634       9.93023897
Si      -8.34014667       2.83076410       5.21247077
Si       1.16240752      -0.17506236       3.12713325
Si      -6.15353187       4.70872432       5.57824299
Si      -4.10306287      -0.74524895       8.53308001
Si      -3.79058097       5.62691794      -0.13478999
Si       0.64485919       0.62982392       4.11294120
Si      -0.77026717       5.29846245      -0.26068381
Si      -1.65558341      -0.74062038       3.53249130
Si       5.49934520      -4.83945602       7.53473211
Si       0.83787538       0.76234969       3.14704789
Si      -5.84934400       3.73850907       5.69226598
Si      -5.78463548       4.19505375       4.78047667
Si      -1.29777967      -0.75423017       9.01287358
22
Lattice="9.308059676685883 -3.1410506367692275 -1.1258743353139913 -8.717450764200699 9.414404843189855 -1.8065906185450618 -4.9536357141142995 -1.2274244402523216 11.714131837424752" Properties=species:S:1:pos:R:3 unique_starting_index=18 config_type=initial n_minim_iter=15 stress="-3.4190810831090327e-06 -8.58074232879927e-07 3.4232799008126953e-06 -8.58074232879927e-07 5.043185761239869e-07 4.4101689149490964e-06 3.4232799008126953e-06 4.4101689149490964e-06 4.8577415664794e-06" pbc="T T T"
Si      -1.10176549       6.16107251      -0.09241428
Si       1.16377217       0.13365380       9.49959564
Si      -4.17387560      -1.17618677       9.43723406
Si       0.81802559       0.39525668      10.53143754
Si      -8.44848367       4.12156517      10.70849779
Si       6.11714735       0.82469636      -1.42198348
Si       3.46728158       0.37944638      -1.79169309
Si      -1.59878971       0.13208145       9.02275987
Si      -1.78923296       0.03814589       9.93021315
Si      -8.34023300       2.83084021       5.21253620
Si       1.16242538      -0.17510275       3.12714192
Si      -6.15363606       4.70881777       5.57837889
Si      -4.10316773      -0.74499330       8.53309129
Si      -3.79060897       5.62698314      -0.13476962
Si       0.64487524       0.62980982       4.11292488
Si      -0.77028041       5.29836564      -0.26056872
Si      -1.65559411      -0.74052981       3.53245106
Si       5.49937191      -4.83929979       7.53453302
Si       0.83787182       0.76231118       3.14703152
Si      -5.84940932       3.73859560       5.69226245
Si      -5.78474290       4.19526947       4.78052936
Si      -1.29784661      -0.75405834       9.01284488
22
Lattice="9.30813684262755 -3.1411092329846984 -1.125922824825328 -8.717545393815957 9.41445648688713 -1.806507441314348 -4.953714057990615 -1.2273596746237436 11.71408363113716" Properties=species:S:1:pos:R:3 unique_starting_index=18 config_type=initial n_minim_iter=16 stress="-4.177351046539434e-06 -1.2760507025853597e-06 4.365022341162472e-06 -1.2760507025853597e-06 5.74174738731025e-06 1.840180672092979e-06 4.365022341162472e-06 1.840180672092979e-06 2.9420498687716373e-06" pbc="T T T"
Si      -1.10177403       6.16102530      -0.09247755
Si       1.16374057       0.13364799       9.49956107
Si      -4.17391828      -1.17617328       9.43720806
Si       0.81797567       0.39530775      10.53138056
Si      -8.44856766       4.12162317      10.70845772
Si       6.11715600       0.82466057      -1.42195084
Si       3.46729870       0.37943222      -1.79169644
Si      -1.59886890       0.13215505       9.02270630
Si      -1.78928938       0.03821057       9.93015596
Si      -8.34031525       2.83087175       5.21258339
Si       1.16242746      -0.17514054       3.12713266
Si      -6.15372477       4.70884960       5.57844178
Si      -4.10327513      -0.74486101       8.53310837
Si      -3.79061838       5.62702268      -0.13476913
Si       0.64489095       0.62979575       4.11290306
Si      -0.77031726       5.29828699      -0.26050539
Si      -1.65564558      -0.74048921       3.53243223
Si       5.49938809      -4.83921737       7.53437523
Si       0.83786875       0.76227779       3.14700169
Si      -5.84946714       3.73862437       5.69225573
Si      -5.78486288       4.19541152       4.78054382
Si      -1.29793423      -0.75397732       9.01278641
22
Lattice="9.308287370834163 -3.141159869966064 -1.1260412851415746 -8.717693978062924 9.414462506757507 -1.8063539166471658 -4.953922225788551 -1.2272955410277113 11.714023409454384" Properties=species:S:1:pos:R:3 unique_starting_index=18 config_type=initial n_minim_iter=17 stress="-4.844944053739797e-06 -2.201872118461009e-07 3.8640119874269285e-06 -2.201872118461009e-07 5.731895838987008e-06 -2.7726003858031727e-06 3.8640119874269285e-06 -2.7726003858031727e-06 -7.97737904557079e-07" pbc="T T T"
Si      -1.10176238       6.16095425      -0.09257725
Si       1.16358872       0.13359125       9.49947310
Si      -4.17406393      -1.17617867       9.43720549
Si       0.81783874       0.39535718      10.53126677
Si      -8.44882425       4.12163457      10.70841567
Si       6.11720419       0.82460224      -1.42193746
Si       3.46736076       0.37941657      -1.79174386
Si      -1.59901365       0.13223487       9.02261564
Si      -1.78941774       0.03827091       9.93005311
Si      -8.34050116       2.83088291       5.21268051
Si       1.16238973      -0.17520000       3.12710279
Si      -6.15389598       4.70883578       5.57854146
Si      -4.10350593      -0.74469969       8.53318226
Si      -3.79065764       5.62703964      -0.13478449
Si       0.64487253       0.62975961       4.11284815
Si      -0.77035012       5.29813125      -0.26040593
Si      -1.65571150      -0.74041136       3.53245872
Si       5.49936375      -4.83910374       7.53409810
Si       0.83784871       0.76221539       3.14693964
Si      -5.84958898       3.73861245       5.69225636
Si      -5.78510893       4.19557291       4.78056797
Si      -1.29809534      -0.75388097       9.01268174
22
Lattice="9.30849044044311 -3.141204119550134 -1.1262360853992401 -8.717880342823053 9.41440908437981 -1.8061160645614303 -4.954230222289532 -1.227179385013237 11.714025158194243" Properties=species:S:1:pos:R:3 unique_starting_index=18 config_type=initial n_minim_iter=18 stress="2.9097356951513086e-07 -2.668109573173184e-06 -8.030495344259345e-06 -2.668109573173184e-06 3.032570473016031e-07 1.3665794159316566e-05 -8.030495344259345e-06 1.3665794159316566e-05 2.7015015507497053e-06" pbc="T T T"
Si      -1.10177756       6.16080278      -0.09262916
Si       1.16338680       0.13355196       9.49940477
Si      -4.17426637      -1.17614858       9.43727003
Si       0.81767153       0.39541546      10.53118209
Si      -8.44919181       4.12167179      10.70846339
Si       6.11729329       0.82453171      -1.42195621
Si       3.46745036       0.37939035      -1.79183659
Si      -1.59923341       0.13235987       9.02253969
Si      -1.78961387       0.03834798       9.92999762
Si      -8.34074425       2.83091226       5.21285594
Si       1.16233228      -0.17525191       3.12707446
Si      -6.15414758       4.70881991       5.57874335
Si      -4.10380624      -0.74448836       8.53334248
Si      -3.79072605       5.62706672      -0.13477470
Si       0.64482171       0.62974351       4.11279155
Si      -0.77042716       5.29794764      -0.26024623
Si      -1.65581320      -0.74027162       3.53248291
Si       5.49929904      -4.83895604       7.53377732
Si       0.83781189       0.76216612       3.14688146
Si      -5.84979803       3.73858955       5.69228386
Si      -5.78540256       4.19571004       4.78065298
Si      -1.29832609      -0.75378288       9.01259957
22
Lattice="9.30862329002126 -3.141205623832904 -1.1262646288472242 -8.71801389310958 9.41438471100059 -1.8061568198654443 -4.9543819772082305 -1.2273029045939048 11.71399509478498" Properties=species:S:1:pos:R:3 unique_starting_index=18 config_type=initial n_minim_iter=19 stress="-1.1555828283362627e-06 1.5688787995899917e-06 -3.5526259827534745e-06 1.5688787995899917e-06 2.431689565964306e-06 -5.905982439617582e-06 -3.5526259827534745e-06 -5.905982439617582e-06 2.5697949759362074e-07" pbc="T T T"
Si      -1.10177771       6.16069892      -0.09279866
Si       1.16330980       0.13335863       9.49934090
Si      -4.17434188      -1.17634359       9.43729450
Si       0.81756909       0.39532305      10.53109354
Si      -8.44937272       4.12148513      10.70834538
Si       6.11734011       0.82448666      -1.42193793
Si       3.46752004       0.37939989      -1.79189062
Si      -1.59935211       0.13229350       9.02244816
Si      -1.78966796       0.03822991       9.92992972
Si      -8.34088480       2.83083706       5.21287129
Si       1.16229599      -0.17535402       3.12705617
Si      -6.15428728       4.70870449       5.57880915
Si      -4.10399716      -0.74446537       8.53345804
Si      -3.79075112       5.62708020      -0.13491190
Si       0.64482354       0.62968120       4.11272596
Si      -0.77045876       5.29778686      -0.26020659
Si      -1.65589295      -0.74020818       3.53252532
Si       5.49928658      -4.83895991       7.53364121
Si       0.83779219       0.76207996       3.14682269
Si      -5.84990969       3.73846016       5.69214634
Si      -5.78555830       4.19571232       4.78060012
Si      -1.29846184      -0.75389134       9.01251809
22
Lattice="9.30873859836474 -3.1412427103539766 -1.1262828531995475 -8.718162333765306 9.41436532290733 -1.8061563269875183 -4.954463145765579 -1.2273007281578228 11.713974572909677" Properties=species:S:1:pos:R:3 unique_starting_index=18 config_type=initial n_minim_iter=20 stress="1.6112493658958413e-06 1.917740813532083e-06 -8.520121918188991e-06 1.917740813532083e-06 -6.620433989043013e-06 5.967810767549125e-06 -8.520121918188991e-06 5.967810767549125e-06 -4.6020351727486294e-07" pbc="T T T"
Si      -1.10178543       6.16062549      -0.09290219
Si       1.16327939       0.13324106       9.49933279
Si      -4.17436291      -1.17645793       9.43731568
Si       0.81752238       0.39529056      10.53103851
Si      -8.44949388       4.12142029      10.70825461
Si       6.11734723       0.82445727      -1.42191189
Si       3.46756528       0.37935725      -1.79191252
Si      -1.59940852       0.13227791       9.02241049
Si      -1.78970622       0.03820037       9.92988034
Si      -8.34102338       2.83084829       5.21288663
Si       1.16229065      -0.17540338       3.12704498
Si      -6.15440369       4.70865369       5.57891385
Si      -4.10412677      -0.74437031       8.53356273
Si      -3.79079024       5.62712162      -0.13499418
Si       0.64484313       0.62967270       4.11269249
Si      -0.77051340       5.29763243      -0.26014704
Si      -1.65596585      -0.74010344       3.53256776
Si       5.49934409      -4.83892126       7.53352611
Si       0.83779474       0.76204188       3.14679232
Si      -5.84998523       3.73841553       5.69203869
Si      -5.78569779       4.19574690       4.78057963
Si      -1.29852224      -0.75388669       9.01246958
22
Lattice="9.30887984638669 -3.1413817649839992 -1.126138860172933 -8.718432464129565 9.414547438340197 -1.806410121996131 -4.954387877900362 -1.2274346332247987 11.713942146357235" Properties=species:S:1:pos:R:3 unique_starting_index=18 config_type=initial n_minim_iter=21 stress="1.8044783490980205e-06 5.496330877588115e-06 -3.0449580507440034e-06 5.496330877588115e-06 5.2740107115429805e-06 -1.5429232383993268e-05 -3.0449580507440034e-06 -1.5429232383993268e-05 1.7499926281717848e-06" pbc="T T T"
Si      -1.10182966       6.16057307      -0.09317692
Si       1.16338015       0.13293991       9.49935402
Si      -4.17423598      -1.17678913       9.43734756
Si       0.81758769       0.39519010      10.53101963
Si      -8.44949200       4.12130157      10.70799645
Si       6.11730414       0.82439916      -1.42178368
Si       3.46756176       0.37927333      -1.79189191
Si      -1.59932065       0.13214606       9.02239153
Si      -1.78962517       0.03802085       9.92984097
Si      -8.34118092       2.83090811       5.21277238
Si       1.16232433      -0.17550243       3.12705888
Si      -6.15449398       4.70858957       5.57894665
Si      -4.10416060      -0.74434225       8.53372077
Si      -3.79086997       5.62726602      -0.13526172
Si       0.64489629       0.62961787       4.11267319
Si      -0.77063218       5.29753807      -0.26009975
Si      -1.65599925      -0.73995634       3.53258200
Si       5.49955338      -4.83907197       7.53348431
Si       0.83786347       0.76196933       3.14676636
Si      -5.85001077       3.73834069       5.69179336
Si      -5.78584191       4.19586970       4.78043765
Si      -1.29844573      -0.75399442       9.01245139
