12
Lattice="5.886960744424275 1.508259452593792 -1.7067079739314983 0.384767861808705 8.017441793333157 0.4718310943745737 -2.8703953005212073 -2.213872926425469 11.471644455889095" Properties=species:S:1:pos:R:3 unique_starting_index=44 config_type=initial n_minim_iter=1 energy=-2129.35538570371 free_energy=-2129.35538570371 pbc="T T T"
Si      -1.43466225       1.94931107       9.40845069
Si      -0.43491223       4.30557596       3.91865566
Si      -1.60591280       4.57451954      10.16465998
Si       3.21595862       3.52620965       7.56563396
Si       3.93510974       6.15107036       7.58012557
Si       4.00864308       3.52303853       6.78504517
Si       6.42033307       5.67005300      -2.91802506
Si       1.62786606       4.07638819      -1.06253655
Si      -2.17552336      -0.72566480      10.00715499
Si       5.67995403       3.75232687       1.97192938
Si      -2.48791616      -0.64755776       8.99362913
Si      -1.45008496      -0.72044789       9.22467218
12
Lattice="5.8862465953649465 1.5082415450453728 -1.7062466521511532 0.38430781201616815 8.019910447992839 0.47254343945543525 -2.8693839170137823 -2.2133948194503854 11.47123045992449" Properties=species:S:1:pos:R:3 unique_starting_index=44 config_type=initial n_minim_iter=2 stress="0.003104090206536884 0.0024693969618447575 -0.0016643502945522617 0.0024693969618447575 0.005483544321135076 -0.0018535081399017302 -0.0016643502945522617 -0.0018535081399017302 0.0006058366048351914" pbc="T T T"
Si      -1.43411561       1.95078180       9.40849733
Si      -0.43492541       4.30728298       3.91898890
Si      -1.60549809       4.57687472      10.16489688
Si       3.21593093       3.52777450       7.56601798
Si       3.93479354       6.15338912       7.58082427
Si       4.00841850       3.52441344       6.78554486
Si       6.41929735       5.67116271      -2.91715752
Si       1.62742577       4.07742986      -1.06209979
Si      -2.17470269      -0.72484723      10.00694743
Si       5.67933908       3.75332508       1.97256358
Si      -2.48716511      -0.64682643       8.99335629
Si      -1.44942548      -0.71977020       9.22450538
12
Lattice="5.879359264011967 1.5032965367277276 -1.7022529867118985 0.3790782090901122 8.019269412624604 0.4776167677117695 -2.8599519027553635 -2.204288379125046 11.466970726385043" Properties=species:S:1:pos:R:3 unique_starting_index=44 config_type=initial n_minim_iter=3 stress="-0.002808236812452317 -0.0005087191349688528 0.00042063936426717046 -0.0005087191349688528 -0.0003503407243217307 0.0003053190187821059 0.00042063936426717046 0.0003053190187821059 -0.0005054585955817019" pbc="T T T"
Si      -1.42948114       1.95716516       9.40787254
Si      -0.43564837       4.30987442       3.92098649
Si      -1.60241456       4.58366176      10.16546566
Si       3.21504544       3.53020644       7.56824858
Si       3.93087015       6.15507594       7.58548905
Si       4.00567089       3.52513465       6.78891875
Si       6.40896941       5.66467078      -2.91010086
Si       1.62284651       4.07518901      -1.05877598
Si      -2.16717703      -0.71674809      10.00442114
Si       5.67302754       3.75060594       1.97746791
Si      -2.48026874      -0.63952928       8.99029969
Si      -1.44343259      -0.71289758       9.22242046
12
Lattice="5.88655088485384 1.501542259226552 -1.7015597176171027 0.3780527288394423 8.018931226616388 0.48020864230838206 -2.8619677078519454 -2.2001331260785424 11.468849398599003" Properties=species:S:1:pos:R:3 unique_starting_index=44 config_type=initial n_minim_iter=4 stress="0.002387993950358281 -0.0003505336543694982 0.0010133431098471402 -0.0003505336543694982 -0.0005439299463594866 0.0008399110340188998 0.0010133431098471402 0.0008399110340188998 0.0023725071279357152" pbc="T T T"
Si      -1.43030397       1.96034841       9.41082038
Si      -0.43746198       4.31182029       3.92344984
Si      -1.60518300       4.58648018      10.16872658
Si       3.22077825       3.53179133       7.57032420
Si       3.93495599       6.15674206       7.58955847
Si       4.01036538       3.52473993       6.79244806
Si       6.41637110       5.66143626      -2.90826726
Si       1.62413875       4.07376988      -1.05784415
Si      -2.16779361      -0.71276737      10.00741412
Si       5.68011461       3.74999413       1.98014240
Si      -2.48246525      -0.63626381       8.99123967
Si      -1.44445813      -0.70877399       9.22511037
12
Lattice="5.886272082376089 1.5024854299402712 -1.7027864412462084 0.37842071707343816 8.019378864837213 0.47784488183584356 -2.866048393371017 -2.2031207182263914 11.46113362316769" Properties=species:S:1:pos:R:3 unique_starting_index=44 config_type=initial n_minim_iter=5 stress="0.0006182594478767767 0.00047473247493125633 -0.00014611991923858808 0.00047473247493125633 -0.00022287704639186397 -0.00023577444187523568 -0.00014611991923858808 -0.00023577444187523568 -0.002509445003390275" pbc="T T T"
Si      -1.43315629       1.95875618       9.40319048
Si      -0.43933197       4.31196938       3.91966448
Si      -1.60918694       4.58424718      10.15961883
Si       3.21869121       3.53060050       7.56150252
Si       3.93131960       6.15603888       7.58031134
Si       4.00704840       3.52287459       6.78486396
Si       6.41714135       5.66229378      -2.90981140
Si       1.62459970       4.07404775      -1.05870415
Si      -2.17081062      -0.71553056      10.00073174
Si       5.67880892       3.75035226       1.97587937
Si      -2.48541237      -0.63868017       8.98475331
Si      -1.44827911      -0.71051531       9.21887247
12
Lattice="5.883602222225252 1.501936932444574 -1.706903481802934 0.3767065812666651 8.019499378587309 0.4763555155455275 -2.8691570872184764 -2.205110073378432 11.471123700903677" Properties=species:S:1:pos:R:3 unique_starting_index=44 config_type=initial n_minim_iter=6 stress="-0.0010999549856181318 0.0005526783925809569 0.0005969731996666599 0.0005526783925809569 -0.00011444989138653922 -0.0014638457431619936 0.0005969731996666599 -0.0014638457431619936 0.0012530035128780087" pbc="T T T"
Si      -1.43585321       1.95835632       9.40979605
Si      -0.44300919       4.31285733       3.92221882
Si      -1.61439737       4.58276230      10.16657244
Si       3.21467078       3.52872277       7.56422203
Si       3.92399106       6.15408597       7.58180006
Si       4.00106500       3.52001206       6.78681640
Si       6.41455913       5.66122943      -2.91622045
Si       1.62381924       4.07381907      -1.06049624
Si      -2.17345084      -0.71825487      10.00961355
Si       5.67459400       3.74948200       1.97481843
Si      -2.48764820      -0.64055564       8.99237382
Si      -1.45221038      -0.71215069       9.22701431
12
Lattice="5.886282645219656 1.4981041336439844 -1.7102122606871766 0.372933785577309 8.01932927613236 0.481507086174878 -2.8786311182248854 -2.1957327161770124 11.468508091178789" Properties=species:S:1:pos:R:3 unique_starting_index=44 config_type=initial n_minim_iter=7 stress="0.0001248750590715637 0.00023395395745156051 -0.0010841571305211567 0.00023395395745156051 -0.00025678197605444515 0.0009801299848705713 -0.0010841571305211567 0.0009801299848705713 0.00019041801561658735" pbc="T T T"
Si      -1.44363693       1.96648364       9.40930620
Si      -0.45009567       4.31730368       3.92491424
Si      -1.62617762       4.59049976      10.16778747
Si       3.20921340       3.53221751       7.56163540
Si       3.91563348       6.15682000       7.57953420
Si       3.99524455       3.52214943       6.78316256
Si       6.41693409       5.65561577      -2.91731342
Si       1.62386867       4.07217096      -1.05834831
Si      -2.18207523      -0.71086016      10.00823653
Si       5.67352682       3.74872967       1.97304443
Si      -2.49570173      -0.63349622       8.99162013
Si      -1.46044858      -0.70528366       9.22557262
12
Lattice="5.887117006478428 1.4938249246776614 -1.708811518971258 0.3664773399921201 8.019669139770002 0.4790638566866118 -2.877262345637802 -2.196515552909124 11.458974943246085" Properties=species:S:1:pos:R:3 unique_starting_index=44 config_type=initial n_minim_iter=8 stress="0.0004382718020165972 -0.000979283888801089 5.91910795135506e-05 -0.000979283888801089 0.0002738401251545372 -0.00077643343876793 5.91910795135506e-05 -0.00077643343876793 -0.0005391402625311328" pbc="T T T"
Si      -1.44254424       1.96594075       9.40044902
Si      -0.45711000       4.32007304       3.92123709
Si      -1.63103032       4.58876022      10.15741029
Si       3.20936173       3.52647503       7.55388176
Si       3.91193468       6.15171549       7.56974043
Si       3.99431335       3.51721936       6.77492503
Si       6.41524401       5.65041583      -2.91670038
Si       1.62173828       4.07158626      -1.05790262
Si      -2.18224666      -0.71219283      10.00000835
Si       5.67318761       3.74518318       1.97226375
Si      -2.49658683      -0.63409910       8.98477123
Si      -1.45987774      -0.70627675       9.21864535
12
Lattice="5.886897658124911 1.493424941673605 -1.7075125549702 0.3671953590360949 8.0193147731549 0.48279666878461247 -2.877748202935137 -2.190935896920698 11.452611209482605" Properties=species:S:1:pos:R:3 unique_starting_index=44 config_type=initial n_minim_iter=9 stress="-0.0006630198450062342 0.0015752116920313302 0.0007167780276786986 0.0015752116920313302 -1.2591488187184791e-05 0.0008206392069886302 0.0007167780276786986 0.0008206392069886302 -0.0002559458040332641" pbc="T T T"
Si      -1.44012917       1.96993631       9.39587575
Si      -0.46093616       4.32489825       3.92253253
Si      -1.63173992       4.59325516      10.15450393
Si       3.21026825       3.52792053       7.55088701
Si       3.91217694       6.15528037       7.56766132
Si       3.99463833       3.52064486       6.77227563
Si       6.41675475       5.64776782      -2.91301616
Si       1.62242759       4.07131574      -1.05478010
Si      -2.18339601      -0.70791159       9.99574650
Si       5.67361781       3.74825955       1.97478582
Si      -2.49782336      -0.63112035       8.98094153
Si      -1.46026010      -0.70126430       9.21456190
12
Lattice="5.8883884306214584 1.4862292695492627 -1.710864100370268 0.35675468812369254 8.019717357963081 0.4815322620504219 -2.883278826750339 -2.1887669588078693 11.451151847923622" Properties=species:S:1:pos:R:3 unique_starting_index=44 config_type=initial n_minim_iter=10 stress="-0.0005565447611604302 -0.0008346295598183044 -0.0006302710167084267 -0.0008346295598183044 0.0006797351418866912 -1.1098641273678727e-06 -0.0006302710167084267 -1.1098641273678727e-06 0.00011116884509152031" pbc="T T T"
Si      -1.44709201       1.97002137       9.39190607
Si      -0.47394763       4.32911274       3.92227059
Si      -1.64536030       4.59442926      10.15136627
Si       3.20324878       3.52147219       7.54486446
Si       3.90206813       6.14981183       7.56125083
Si       3.98841342       3.51548589       6.76694530
Si       6.41549128       5.63943226      -2.91675835
Si       1.61862607       4.07016918      -1.05541240
Si      -2.19033606      -0.70716183       9.99515419
Si       5.67037808       3.74372035       1.97226307
Si      -2.50419603      -0.63029640       8.97986879
Si      -1.46622241      -0.70051401       9.21282044
12
Lattice="5.891689055032739 1.4813162793756611 -1.70809890138387 0.3503785551321705 8.020076616445511 0.48142723064713816 -2.881045792456312 -2.186281224175794 11.441642839341783" Properties=species:S:1:pos:R:3 unique_starting_index=44 config_type=initial n_minim_iter=11 stress="-0.0007288046675563757 4.3442655160586124e-05 0.0001634122549782505 4.3442655160586124e-05 0.0009121531578906913 0.0001477926544221814 0.0001634122549782505 0.0001477926544221814 2.2807963990787006e-05" pbc="T T T"
Si      -1.44526897       1.97086730       9.38320576
Si      -0.48583472       4.33582226       3.92126694
Si      -1.64842178       4.59504947      10.14348138
Si       3.20656197       3.51663289       7.53804396
Si       3.90448106       6.14384629       7.55490720
Si       3.99168915       3.51334868       6.76254053
Si       6.41802773       5.63290350      -2.91341928
Si       1.61610504       4.07031567      -1.05433503
Si      -2.18915528      -0.70703582       9.98810506
Si       5.67324195       3.74471286       1.97578122
Si      -2.50315628      -0.63050416       8.97136533
Si      -1.46693446      -0.69884534       9.20528185
12
Lattice="5.894972446208259 1.474490400948447 -1.7043192825002027 0.34149390527665235 8.02060580106293 0.481529158240435 -2.8767420956335172 -2.182677061863572 11.43093583204302" Properties=species:S:1:pos:R:3 unique_starting_index=44 config_type=initial n_minim_iter=12 stress="3.003519146973035e-05 -0.0005029913319250195 0.0009687394307864112 -0.0005029913319250195 0.0013022576298945547 0.00019253879613046336 0.0009687394307864112 0.00019253879613046336 -0.0006078159504625883" pbc="T T T"
Si      -1.44338697       1.97205345       9.37504063
Si      -0.49991786       4.34325984       3.92038573
Si      -1.65123029       4.59780414      10.13542581
Si       3.21024761       3.51032983       7.53269430
Si       3.90749709       6.13951773       7.54960596
Si       3.99507208       3.50851057       6.75716172
Si       6.41800362       5.62333598      -2.91022606
Si       1.61269248       4.06935589      -1.05294719
Si      -2.18593462      -0.70608469       9.97922784
Si       5.67573973       3.74568814       1.98044385
Si      -2.50010202      -0.63008539       8.96135702
Si      -1.46616641      -0.69728612       9.19629071
12
Lattice="5.894007862215626 1.4681432434583446 -1.707152317403725 0.33245319752210617 8.021169464497456 0.4816602173689266 -2.880315266271452 -2.1792314675376985 11.430842533475348" Properties=species:S:1:pos:R:3 unique_starting_index=44 config_type=initial n_minim_iter=13 stress="-0.0012558745155003368 -0.00015816663176833684 -0.0003259188293700325 -0.00015816663176833684 0.0014482433897341808 0.00027693891960691407 -0.0003259188293700325 0.00027693891960691407 0.0006757425030543723" pbc="T T T"
Si      -1.44937565       1.97394098       9.37329888
Si      -0.52174506       4.35319823       3.92402315
Si      -1.66147139       4.59802272      10.13648304
Si       3.20472322       3.50327567       7.52985350
Si       3.90184289       6.13352636       7.54633286
Si       3.98912203       3.50178691       6.75236955
Si       6.41441623       5.61264684      -2.91574060
Si       1.60941940       4.06789339      -1.05270585
Si      -2.18983166      -0.70459398       9.97882321
Si       5.67102685       3.75172023       1.98296995
Si      -2.50282362      -0.62926181       8.95922391
Si      -1.47027134      -0.69469596       9.19371127
12
Lattice="5.896755580640541 1.4546788665759074 -1.6999094946577578 0.31409405769954657 8.022034349399325 0.47972677037857986 -2.8718613094668783 -2.1744152221185225 11.40273215372291" Properties=species:S:1:pos:R:3 unique_starting_index=44 config_type=initial n_minim_iter=14 stress="0.00032168624704012177 -0.0008815574622956016 0.0014847611656074729 -0.0008815574622956016 0.0020222874129709445 0.0005034035032550376 0.0014847611656074729 0.0005034035032550376 -0.001117568633984705" pbc="T T T"
Si      -1.44814868       1.97705597       9.34787925
Si      -0.56484015       4.37408932       3.92272397
Si      -1.66910429       4.59920624      10.11539386
Si       3.20920549       3.48953410       7.50877818
Si       3.90701078       6.11801555       7.52838785
Si       3.99307300       3.48397847       6.73566740
Si       6.40961800       5.59147725      -2.90722592
Si       1.60301698       4.06307922      -1.04950801
Si      -2.18221862      -0.70749012       9.94986464
Si       5.67127476       3.76758584       1.99300802
Si      -2.49830601      -0.63206672       8.93336163
Si      -1.45873637      -0.69481641       9.16781775
12
Lattice="5.896306931525976 1.4544064633393445 -1.7071129686896176 0.31234238434248124 8.02216869843992 0.47717567595792465 -2.8843786230697357 -2.176984349488814 11.40459596527215" Properties=species:S:1:pos:R:3 unique_starting_index=44 config_type=initial n_minim_iter=15 stress="-0.0011943459974828347 -0.0006578082588476243 -0.0007257447940785376 -0.0006578082588476243 0.0012400029943357683 0.0006957384927941487 -0.0007257447940785376 0.0006957384927941487 -0.0015953366635437884" pbc="T T T"
Si      -1.45738995       1.97294621       9.34777778
Si      -0.58579379       4.38209484       3.92584933
Si      -1.68256727       4.59425355      10.11586276
Si       3.19893057       3.48522731       7.50007030
Si       3.89911609       6.11368642       7.51860845
Si       3.98469973       3.47826999       6.72613321
Si       6.41108113       5.58949885      -2.91462560
Si       1.60363146       4.06179210      -1.05313678
Si      -2.19101636      -0.71081559       9.94818988
Si       5.66630968       3.78057951       1.98941137
Si      -2.50561776      -0.63768649       8.93410026
Si      -1.46715760      -0.69864556       9.16693181
12
Lattice="5.894748582113168 1.470763409454391 -1.7074704352029175 0.33099811356498227 8.021807302052432 0.46481730472235877 -2.883756751159766 -2.201370121670791 11.40619009516332" Properties=species:S:1:pos:R:3 unique_starting_index=44 config_type=initial n_minim_iter=16 stress="-0.00015053036671369553 -0.00039076998623173735 -0.000532250417569133 -0.00039076998623173735 -0.0022580528453809614 -0.00017860204852416302 -0.000532250417569133 -0.00017860204852416302 -0.0025504200423677676" pbc="T T T"
Si      -1.44735891       1.94758924       9.34261485
Si      -0.59392771       4.38581457       3.92534270
Si      -1.67212274       4.57298374      10.10493156
Si       3.20805855       3.47835135       7.49465994
Si       3.91668298       6.10594353       7.50691725
Si       3.99497664       3.47290836       6.71929997
Si       6.41673636       5.60939589      -2.92030223
Si       1.61395203       4.06272887      -1.05888655
Si      -2.18167597      -0.73158845       9.94719537
Si       5.67094585       3.81133595       1.98796587
Si      -2.49745627      -0.65851672       8.93213264
Si      -1.46090010      -0.72336694       9.16722212
12
Lattice="5.892922233102029 1.4855952220501312 -1.7072436563898725 0.349578692194757 8.021055033509052 0.45891766965843805 -2.8817567854667967 -2.216816407947625 11.414081656736311" Properties=species:S:1:pos:R:3 unique_starting_index=44 config_type=initial n_minim_iter=17 stress="0.0005715226143218631 0.00013940810591174654 -0.0007767841855116718 0.00013940810591174654 -0.004205933139692944 -0.00026007797599217087 -0.0007767841855116718 -0.00026007797599217087 -0.0020916175212503793" pbc="T T T"
Si      -1.43809333       1.93182752       9.34686883
Si      -0.59117118       4.38699425       3.92804083
Si      -1.65800314       4.55744052      10.10623209
Si       3.21820343       3.47958399       7.49946167
Si       3.93253620       6.10769842       7.50526909
Si       4.00478948       3.47343490       6.72361460
Si       6.42265280       5.62836864      -2.92447415
Si       1.62206358       4.06495557      -1.06382882
Si      -2.17521416      -0.74448486       9.95515091
Si       5.67578271       3.83351630       1.98813385
Si      -2.49085602      -0.67264138       8.93656181
Si      -1.45353502      -0.73999359       9.17244575
12
Lattice="5.892199480892046 1.4999314421383712 -1.7069658979294917 0.367799272326179 8.020665373256536 0.45416193976290375 -2.876097542845472 -2.2316012510300998 11.436050264761082" Properties=species:S:1:pos:R:3 unique_starting_index=44 config_type=initial n_minim_iter=18 stress="0.0017284198044656672 0.0002002861359391469 -0.0005375429058470816 0.0002002861359391469 -0.0036563526321197375 -0.0004819264134521174 -0.0005375429058470816 -0.0004819264134521174 0.0007591468125605905" pbc="T T T"
Si      -1.42678676       1.91669050       9.36457688
Si      -0.58042019       4.38723983       3.93444536
Si      -1.63899125       4.54493367      10.11862908
Si       3.23072651       3.48454744       7.51548885
Si       3.95266944       6.10939307       7.51838900
Si       4.01716148       3.47301634       6.73916434
Si       6.42969092       5.64610849      -2.92904816
Si       1.62900711       4.06663615      -1.06945454
Si      -2.16924791      -0.75672447       9.97351212
Si       5.68315747       3.84878793       1.98941096
Si      -2.48159683      -0.68372645       8.95623637
Si      -1.44557398      -0.75341064       9.18940606
12
Lattice="5.8923359017239205 1.5058982613521326 -1.7043532734019058 0.37556097944132955 8.020570094193864 0.452067454892391 -2.8713041571962075 -2.237673450449004 11.437626564029133" Properties=species:S:1:pos:R:3 unique_starting_index=44 config_type=initial n_minim_iter=19 stress="0.0021236889366783264 0.00012347567180779454 7.810738169530301e-05 0.00012347567180779454 -0.002372806565359233 -0.000350835527722426 7.810738169530301e-05 -0.000350835527722426 0.000437359534800331" pbc="T T T"
Si      -1.41989669       1.91077041       9.36443769
Si      -0.57784531       4.39115598       3.93579105
Si      -1.62792986       4.53893266      10.11870861
Si       3.23763874       3.48634435       7.51843676
Si       3.96464314       6.11001724       7.51951906
Si       4.02589000       3.47200476       6.74306774
Si       6.43234625       5.65284471      -2.92759649
Si       1.63266797       4.06607598      -1.07011478
Si      -2.16367572      -0.76117778       9.97396923
Si       5.68819457       3.85703148       1.98937789
Si      -2.47656343      -0.68942625       8.95797453
Si      -1.44118519      -0.75983107       9.19161473
12
Lattice="5.8872767491755 1.513088366580364 -1.706329260439364 0.3840178951162778 8.020478139508324 0.4490672464649003 -2.870852305360426 -2.24550450739294 11.446364321708865" Properties=species:S:1:pos:R:3 unique_starting_index=44 config_type=initial n_minim_iter=20 stress="0.00035247287167280425 0.0002238431322261855 0.0001726740191927425 0.0002238431322261855 4.125407161611163e-06 -0.0002800773246010091 0.0001726740191927425 -0.0002800773246010091 0.0006515826267659042" pbc="T T T"
Si      -1.41593143       1.90320592       9.37095550
Si      -0.58064351       4.39989644       3.94039134
Si      -1.62104780       4.53112204      10.12369858
Si       3.23645525       3.48695239       7.52186819
Si       3.97030413       6.10895167       7.52234283
Si       4.02720207       3.47012567       6.74568368
Si       6.43125346       5.66095090      -2.93208949
Si       1.63615375       4.06463782      -1.07335418
Si      -2.16170222      -0.76891678       9.98162605
Si       5.68735832       3.86957207       1.98528546
Si      -2.47599553      -0.69723208       8.96323887
Si      -1.43986516      -0.76847323       9.19864521
12
Lattice="5.885856806443252 1.5149405338080533 -1.708653545670703 0.38611950776242293 8.020567867270884 0.44865758020505964 -2.874183766760035 -2.246880416302228 11.449294307212924" Properties=species:S:1:pos:R:3 unique_starting_index=44 config_type=initial n_minim_iter=21 stress="-0.0006559203163198927 3.9187094637230564e-05 -0.00011505334554550124 3.9187094637230564e-05 0.0012497430381995657 -0.00010379927721481617 -0.00011505334554550124 -0.00010379927721481617 8.379157475063994e-05" pbc="T T T"
Si      -1.41818628       1.89959732       9.37335858
Si      -0.58691561       4.40815366       3.94390594
Si      -1.62301533       4.52913817      10.12766050
Si       3.23445207       3.48604843       7.52085635
Si       3.96938059       6.10805541       7.52184712
Si       4.02518941       3.46925226       6.74553982
Si       6.43149589       5.66262631      -2.93576273
Si       1.63806017       4.06326997      -1.07419177
Si      -2.16393269      -0.77209100       9.98334354
Si       5.68696211       3.87773166       1.98110047
Si      -2.47802712      -0.69887881       8.96530349
Si      -1.44167786      -0.77070638       9.20026298
