22
Lattice="9.001911312613178 -2.907552871361976 -1.1908934698254086 -8.190299304165126 9.369314746684521 -1.74682614599065 -4.976753366017958 -1.4456532138956821 11.716586206293584" Properties=species:S:1:pos:R:3 unique_starting_index=18 config_type=initial n_minim_iter=1 energy=-4253.683373296259 free_energy=-4253.683373296259 pbc="T T T"
Si      -0.93722353       6.28189224      -0.01036866
Si       1.07577213       0.20142287       9.45081071
Si      -4.23743208      -1.22058502       9.40213870
Si       0.75599039       0.37201303      10.49927934
Si      -8.27057515       3.93413163      10.76692600
Si       6.11665885       1.05544581      -1.51915158
Si       3.45251182       0.54225189      -1.80920641
Si      -1.66668931       0.02823048       9.00716979
Si      -1.86234575      -0.03070844       9.91594575
Si      -8.03700491       2.62234769       5.23775872
Si       1.12535383      -0.10578976       3.09025643
Si      -5.93085300       4.66081166       5.46716336
Si      -4.08772601      -1.01275071       8.43106010
Si      -3.57034035       5.57305168      -0.05209530
Si       0.59576129       0.63816236       4.10243398
Si      -0.55588552       5.48065164      -0.31993471
Si      -1.61796569      -0.89482142       3.51781228
Si       5.17423557      -4.81982327       7.60751987
Si       0.75681355       0.81179537       3.13381746
Si      -5.64804748       3.73404779       5.79973417
Si      -5.51722682       3.98972417       4.82182727
Si      -1.33079495      -0.84656222       8.99426124
22
Lattice="9.001682591744318 -2.907477654613155 -1.1909314614708457 -8.190092917727068 9.368996809530694 -1.7467103464393277 -4.976672091923345 -1.4455306652177131 11.716410613594068" Properties=species:S:1:pos:R:3 unique_starting_index=18 config_type=initial n_minim_iter=2 stress="-0.004917975178205646 -0.0017287957080367744 -0.0011566845477400404 -0.0017287957080367744 -0.0010588031933822756 -0.0004606664086020074 -0.0011566845477400404 -0.0004606664086020074 -0.0006794512630122616" pbc="T T T"
Si      -0.93722426       6.28171795      -0.01032960
Si       1.07570266       0.20147337       9.45063700
Si      -4.23737769      -1.22054677       9.40197526
Si       0.75590990       0.37201377      10.49903276
Si      -8.27036740       3.93406730      10.76686976
Si       6.11647388       1.05545617      -1.51917937
Si       3.45242124       0.54226232      -1.80918758
Si      -1.66670748       0.02826205       9.00703734
Si      -1.86229554      -0.03066712       9.91582417
Si      -8.03677841       2.62234219       5.23773499
Si       1.12528268      -0.10574392       3.09020447
Si      -5.93070283       4.66067954       5.46712457
Si      -4.08757820      -1.01273697       8.43094341
Si      -3.57028667       5.57287206      -0.05203681
Si       0.59570226       0.63817133       4.10235314
Si      -0.55583496       5.48042572      -0.31993461
Si      -1.61796859      -0.89479100       3.51777526
Si       5.17409561      -4.81961373       7.60726267
Si       0.75676283       0.81178438       3.13378836
Si      -5.64798573       3.73394379       5.79970689
Si      -5.51714164       3.98967137       4.82181742
Si      -1.33081193      -0.84650906       8.99417304
22
Lattice="9.00184302934113 -2.9071814325690566 -1.1908765641758114 -8.190122257265834 9.36839443397166 -1.7466080222052576 -4.976728622411845 -1.4453940850272053 11.716139797801613" Properties=species:S:1:pos:R:3 unique_starting_index=18 config_type=initial n_minim_iter=3 stress="3.3086422122430314e-05 0.00038044048369466555 -5.682156196301163e-05 0.00038044048369466555 -0.0007455899211432778 -6.302456339088681e-06 -5.682156196301163e-05 -6.302456339088681e-06 -0.0007597567271765104" pbc="T T T"
Si      -0.93713617       6.28150072      -0.01023850
Si       1.07582439       0.20164985       9.45045635
Si      -4.23746030      -1.22054732       9.40171531
Si       0.75601153       0.37210826      10.49873629
Si      -8.27032605       3.93388633      10.76677210
Si       6.11659624       1.05563248      -1.51913374
Si       3.45249564       0.54236221      -1.80911244
Si      -1.66670609       0.02833280       9.00687674
Si      -1.86217891      -0.03057964       9.91568820
Si      -8.03681313       2.62220987       5.23763129
Si       1.12529110      -0.10561967       3.09016583
Si      -5.93066309       4.66041927       5.46704566
Si      -4.08750240      -1.01277808       8.43075597
Si      -3.57031276       5.57256879      -0.05196095
Si       0.59572849       0.63823888       4.10227222
Si      -0.55565755       5.48011497      -0.31991169
Si      -1.61805155      -0.89477123       3.51771551
Si       5.17423379      -4.81916001       7.60695752
Si       0.75680310       0.81181880       3.13378897
Si      -5.64809354       3.73372452       5.79965033
Si      -5.51721056       3.98954127       4.82178356
Si      -1.33080632      -0.84640860       8.99408785
22
Lattice="9.001992153981702 -2.9078044197185324 -1.1909120025547397 -8.190576199392034 9.36946862565454 -1.7467870327035646 -4.976557920354661 -1.4452006339270669 11.717173412909025" Properties=species:S:1:pos:R:3 unique_starting_index=18 config_type=initial n_minim_iter=4 stress="-5.555366303649614e-05 1.5229231629095273e-06 -0.00010541225868804757 1.5229231629095273e-06 2.5058618184332865e-05 1.9514191164682306e-05 -0.00010541225868804757 1.9514191164682306e-05 0.0005526787800697004" pbc="T T T"
Si      -0.93741587       6.28206352      -0.01019595
Si       1.07593554       0.20170768       9.45131265
Si      -4.23732342      -1.22046060       9.40252344
Si       0.75610857       0.37218635      10.49966922
Si      -8.27037311       3.93464052      10.76778969
Si       6.11654492       1.05549125      -1.51923755
Si       3.45245123       0.54227156      -1.80922671
Si      -1.66662280       0.02846671       9.00771387
Si      -1.86204891      -0.03042885       9.91663164
Si      -8.03687291       2.62283883       5.23806707
Si       1.12530602      -0.10562084       3.09047016
Si      -5.93080244       4.66108258       5.46753153
Si      -4.08731094      -1.01269390       8.43148819
Si      -3.57059719       5.57316889      -0.05193197
Si       0.59571723       0.63831866       4.10266113
Si      -0.55586191       5.48053861      -0.31992724
Si      -1.61799813      -0.89475930       3.51802371
Si       5.17457238      -4.81971224       7.60759041
Si       0.75678891       0.81189563       3.13411995
Si      -5.64825537       3.73428690       5.80019466
Si      -5.51738290       3.99018730       4.82222974
Si      -1.33067656      -0.84638171       8.99496987
22
Lattice="9.002251547663368 -2.908661634587691 -1.1903550532425127 -8.191386873746772 9.370894093976952 -1.7470501307395452 -4.975930264397754 -1.4449935368502238 11.71597608992491" Properties=species:S:1:pos:R:3 unique_starting_index=18 config_type=initial n_minim_iter=5 stress="3.347919442883412e-05 -0.00038953998271788764 0.00027874388533380635 -0.00038953998271788764 0.0006254762697387037 0.00022155105391684436 0.00027874388533380635 0.00022155105391684436 -0.0007180200759424712" pbc="T T T"
Si      -0.93780950       6.28269093      -0.01021836
Si       1.07646471       0.20172876       9.45048223
Si      -4.23677326      -1.22045044       9.40151614
Si       0.75663393       0.37229710      10.49876955
Si      -8.27014781       3.93557092      10.76664608
Si       6.11648461       1.05524334      -1.51888125
Si       3.45230226       0.54210843      -1.80886379
Si      -1.66613273       0.02856650       9.00695632
Si      -1.86157938      -0.03029802       9.91577599
Si      -8.03691104       2.62368375       5.23724244
Si       1.12544733      -0.10562400       3.09029342
Si      -5.93087185       4.66192700       5.46680455
Si      -4.08676093      -1.01265518       8.43057701
Si      -3.57105461       5.57392928      -0.05201507
Si       0.59582318       0.63839618       4.10236481
Si      -0.55622144       5.48110798      -0.31988639
Si      -1.61777768      -0.89472153       3.51758356
Si       5.17539238      -4.82056138       7.60704753
Si       0.75689341       0.81199635       3.13396090
Si      -5.64831979       3.73500096       5.79950420
Si      -5.51751625       3.99105312       4.82161258
Si      -1.33014114      -0.84640818       8.99428577
22
Lattice="9.002305047096717 -2.9085129950673694 -1.1902060509833716 -8.191438470914807 9.370803745007759 -1.7478024833088626 -4.975898769419128 -1.4456982968494905 11.716872877808887" Properties=species:S:1:pos:R:3 unique_starting_index=18 config_type=initial n_minim_iter=6 stress="0.00011066944010307904 1.189191275020726e-05 -0.0002761750533701996 1.189191275020726e-05 5.2256821752530466e-05 -0.0001895614093925523 -0.0002761750533701996 -0.0001895614093925523 8.743695549245925e-06" pbc="T T T"
Si      -0.93773738       6.28244765      -0.01060524
Si       1.07659343       0.20126725       9.45087450
Si      -4.23663117      -1.22135809       9.40217727
Si       0.75668347       0.37184401      10.49930833
Si      -8.27006456       3.93477070      10.76735671
Si       6.11649785       1.05540562      -1.51917846
Si       3.45215111       0.54222373      -1.80890104
Si      -1.66594248       0.02790637       9.00766879
Si      -1.86161175      -0.03095094       9.91653779
Si      -8.03704283       2.62343218       5.23741853
Si       1.12540214      -0.10564620       3.09054320
Si      -5.93082302       4.66148165       5.46689935
Si      -4.08654590      -1.01342999       8.43116031
Si      -3.57115237       5.57379119      -0.05217306
Si       0.59571841       0.63819901       4.10264232
Si      -0.55621789       5.48106726      -0.32018904
Si      -1.61776768      -0.89488082       3.51773523
Si       5.17553407      -4.82108944       7.60755469
Si       0.75691414       0.81190962       3.13422151
Si      -5.64838974       3.73453578       5.79975282
Si      -5.51760031       3.99088057       4.82175770
Si      -1.33002522      -0.84701454       8.99514166
22
Lattice="9.001838504642794 -2.9084857553461245 -1.18956264806653 -8.191277981143088 9.370474475619906 -1.7482646102650965 -4.974669266952544 -1.4452463654307215 11.716816520450998" Properties=species:S:1:pos:R:3 unique_starting_index=18 config_type=initial n_minim_iter=7 stress="-0.00040935947567929335 0.00016403411823406826 0.0005500949252568516 0.00016403411823406826 -0.0002548351635288048 0.00016577280709703643 0.0005500949252568516 0.00016577280709703643 0.00027304442933412436" pbc="T T T"
Si      -0.93768985       6.28224415      -0.01048982
Si       1.07740674       0.20160522       9.45119174
Si      -4.23554211      -1.22117283       9.40207876
Si       0.75757774       0.37219393      10.49966983
Si      -8.26881885       3.93501380      10.76725261
Si       6.11606940       1.05537901      -1.51875063
Si       3.45181531       0.54212306      -1.80857396
Si      -1.66500147       0.02811717       9.00788411
Si      -1.86072156      -0.03061272       9.91674313
Si      -8.03636200       2.62362617       5.23698946
Si       1.12561134      -0.10544514       3.09076688
Si      -5.93011695       4.66153821       5.46678804
Si      -4.08558139      -1.01318646       8.43105260
Si      -3.57106416       5.57365661      -0.05214535
Si       0.59603205       0.63836386       4.10290638
Si      -0.55624970       5.48090425      -0.32009283
Si      -1.61741338      -0.89470551       3.51768724
Si       5.17604750      -4.82081816       7.60797167
Si       0.75716890       0.81205882       3.13446874
Si      -5.64767422       3.73464143       5.79959994
Si      -5.51699735       3.99098393       4.82159978
Si      -1.32915747      -0.84670653       8.99536672
22
Lattice="9.00256302724933 -2.9092270800525 -1.189645955489376 -8.192426290814657 9.371201947360646 -1.7480277347132118 -4.974906645024826 -1.4446956364860675 11.716625084855236" Properties=species:S:1:pos:R:3 unique_starting_index=18 config_type=initial n_minim_iter=8 stress="6.999928338756907e-05 -7.48976998213429e-05 -4.938009382592118e-05 -7.48976998213429e-05 -4.077610543901378e-05 2.3098084443774494e-05 -4.938009382592118e-05 2.3098084443774494e-05 -3.4523080918165494e-05" pbc="T T T"
Si      -0.93815878       6.28245994      -0.01043990
Si       1.07755278       0.20175111       9.45068107
Si      -4.23549907      -1.22125930       9.40182890
Si       0.75752525       0.37225531      10.49921077
Si      -8.26973161       3.93586405      10.76745566
Si       6.11619956       1.05512825      -1.51899961
Si       3.45190606       0.54175910      -1.80834392
Si      -1.66488580       0.02810133       9.00782958
Si      -1.86106129      -0.03028898       9.91657866
Si      -8.03736917       2.62457584       5.23695364
Si       1.12567517      -0.10518945       3.09077013
Si      -5.93087025       4.66217141       5.46699415
Si      -4.08562821      -1.01290724       8.43087301
Si      -3.57182268       5.57412985      -0.05155350
Si       0.59594159       0.63855306       4.10298086
Si      -0.55667630       5.48107674      -0.32012152
Si      -1.61759457      -0.89448905       3.51767283
Si       5.17684177      -4.82154023       7.60735285
Si       0.75720145       0.81230608       3.13454389
Si      -5.64834502       3.73525292       5.79954570
Si      -5.51767127       3.99163848       4.82163309
Si      -1.32911553      -0.84655673       8.99530512
22
Lattice="9.002119026487085 -2.9090937119014 -1.1892785321027695 -8.19198312922592 9.371286587729674 -1.7484484588016749 -4.974311957921598 -1.4449748814941152 11.716493598880813" Properties=species:S:1:pos:R:3 unique_starting_index=18 config_type=initial n_minim_iter=9 stress="-0.0004326656504167797 0.0005017675339511218 -0.00013267252587202943 0.0005017675339511218 0.0006117552305474409 0.00011106459104535862 -0.00013267252587202943 0.00011106459104535862 -0.0001840769281184635" pbc="T T T"
Si      -0.93798278       6.28274048      -0.01063249
Si       1.07799203       0.20181442       9.45044793
Si      -4.23485959      -1.22200277       9.40159621
Si       0.75777615       0.37225668      10.49911330
Si      -8.26896398       3.93570814      10.76746602
Si       6.11586968       1.05532465      -1.51898638
Si       3.45171242       0.54179388      -1.80817536
Si      -1.66440969       0.02769858       9.00776794
Si      -1.86058656      -0.03040731       9.91651899
Si      -8.03703033       2.62456733       5.23662446
Si       1.12567885      -0.10503014       3.09084150
Si      -5.93027529       4.66217975       5.46694846
Si      -4.08512734      -1.01310938       8.43082628
Si      -3.57158948       5.57416917      -0.05136247
Si       0.59602090       0.63872177       4.10313238
Si      -0.55649966       5.48134526      -0.32025737
Si      -1.61759394      -0.89451015       3.51767495
Si       5.17701340      -4.82193089       7.60744543
Si       0.75730621       0.81252224       3.13465360
Si      -5.64789060       3.73511641       5.79914377
Si      -5.51711792       3.99157538       4.82136181
Si      -1.32874042      -0.84701515       8.99534542
22
Lattice="9.002708575400245 -2.909419655001284 -1.188871998120413 -8.193090359156141 9.371057109174131 -1.7490424454883229 -4.973979506249983 -1.4447826373000625 11.716605606131283" Properties=species:S:1:pos:R:3 unique_starting_index=18 config_type=initial n_minim_iter=10 stress="8.795618426561754e-05 -0.00010795115846927047 9.69302521652627e-05 -0.00010795115846927047 -0.00013844536816786274 -9.511183178619873e-05 9.69302521652627e-05 -9.511183178619873e-05 -4.4795877878404784e-05" pbc="T T T"
Si      -0.93846708       6.28232540      -0.01085493
Si       1.07846870       0.20158547       9.45056733
Si      -4.23452256      -1.22209362       9.40162776
Si       0.75817213       0.37196171      10.49931141
Si      -8.26922544       3.93569601      10.76747209
Si       6.11602140       1.05486883      -1.51890124
Si       3.45177558       0.54152558      -1.80807759
Si      -1.66409256       0.02745940       9.00788675
Si      -1.86024996      -0.03050259       9.91666294
Si      -8.03747038       2.62484330       5.23636044
Si       1.12583325      -0.10508218       3.09096953
Si      -5.93062999       4.66207596       5.46683459
Si      -4.08490634      -1.01293059       8.43093698
Si      -3.57216710       5.57390627      -0.05143816
Si       0.59612261       0.63863143       4.10329524
Si      -0.55689837       5.48098718      -0.32041925
Si      -1.61754650      -0.89433604       3.51771853
Si       5.17799809      -4.82217446       7.60786175
Si       0.75740100       0.81243709       3.13478304
Si      -5.64820443       3.73499990       5.79886743
Si      -5.51741436       3.99148660       4.82113681
Si      -1.32835250      -0.84723468       8.99555415
22
Lattice="9.00319693825177 -2.909626400324847 -1.1891088207160052 -8.193893000713807 9.370292971091956 -1.7486060707830529 -4.974034755665722 -1.4435924863330538 11.71740211278985" Properties=species:S:1:pos:R:3 unique_starting_index=18 config_type=initial n_minim_iter=11 stress="3.443847715568416e-05 9.899803135301075e-06 -3.5656352773975985e-05 9.899803135301075e-06 7.292279062711755e-06 0.00010716608959896514 -3.5656352773975985e-05 0.00010716608959896514 5.944000982435762e-05" pbc="T T T"
Si      -0.93884247       6.28202452      -0.01043138
Si       1.07853138       0.20238210       9.45093242
Si      -4.23426144      -1.22198371       9.40229071
Si       0.75832234       0.37236139      10.49991046
Si      -8.26980493       3.93654040      10.76919032
Si       6.11615623       1.05444190      -1.51934729
Si       3.45179982       0.54108868      -1.80826596
Si      -1.66380089       0.02769429       9.00842791
Si      -1.86014921      -0.02984527       9.91729284
Si      -8.03803936       2.62555632       5.23690180
Si       1.12573760      -0.10467330       3.09119393
Si      -5.93094794       4.66222727       5.46782359
Si      -4.08496749      -1.01199322       8.43187221
Si      -3.57272005       5.57353264      -0.05039962
Si       0.59587586       0.63923005       4.10375013
Si      -0.55743197       5.48063866      -0.31990622
Si      -1.61774817      -0.89342243       3.51774802
Si       5.17858630      -4.82186114       7.60778685
Si       0.75739178       0.81296384       3.13529069
Si      -5.64866483       3.73494072       5.79909361
Si      -5.51768469       3.99162675       4.82162237
Si      -1.32797579      -0.84721133       8.99629088
22
Lattice="9.003683228997657 -2.9097345033950717 -1.188408025045988 -8.19488952302122 9.369873042960313 -1.7498906151854494 -4.973466559889261 -1.444036295900729 11.717786852866908" Properties=species:S:1:pos:R:3 unique_starting_index=18 config_type=initial n_minim_iter=12 stress="1.9828294763237843e-05 5.3287178855608173e-05 0.0001035953154686301 5.3287178855608173e-05 6.216144698532571e-05 -0.000190737316542944 0.0001035953154686301 -0.000190737316542944 3.352673986420588e-05" pbc="T T T"
Si      -0.93946378       6.28218027      -0.01104294
Si       1.07901218       0.20201281       9.45106273
Si      -4.23344108      -1.22326340       9.40295767
Si       0.75907608       0.37137563      10.50028090
Si      -8.26993472       3.93600760      10.76972791
Si       6.11637771       1.05404755      -1.51973431
Si       3.45167619       0.54080675      -1.80829735
Si      -1.66278498       0.02643196       9.00863162
Si      -1.85961612      -0.03060057       9.91734438
Si      -8.03850391       2.62564564       5.23638818
Si       1.12569779      -0.10464716       3.09138730
Si      -5.93102352       4.66145130       5.46747750
Si      -4.08447332      -1.01223953       8.43262102
Si      -3.57328392       5.57304182      -0.05030978
Si       0.59596410       0.63930011       4.10396707
Si      -0.55793735       5.48037089      -0.32020805
Si      -1.61776926      -0.89298642       3.51806374
Si       5.17961335      -4.82261923       7.60827401
Si       0.75762023       0.81307525       3.13567909
Si      -5.64865278       3.73392615       5.79837082
Si      -5.51801016       3.99130238       4.82101718
Si      -1.32711962      -0.84851476       8.99667223
22
Lattice="9.00454869686786 -2.9103129638362666 -1.1891290631312177 -8.196099355739713 9.369430418843866 -1.7485094363605251 -4.974098936382077 -1.4420708383219285 11.718216616658115" Properties=species:S:1:pos:R:3 unique_starting_index=18 config_type=initial n_minim_iter=13 stress="0.00011691383517553573 -2.1332116440829013e-05 -9.357326284856433e-05 -2.1332116440829013e-05 -0.0001051220002799611 0.00036282540260504354 -9.357326284856433e-05 0.00036282540260504354 7.26227009092227e-05" pbc="T T T"
Si      -0.94008563       6.28207134      -0.01022293
Si       1.07873323       0.20340018       9.45123336
Si      -4.23387112      -1.22234839       9.40363014
Si       0.75872299       0.37245673      10.50065227
Si      -8.27129492       3.93788185      10.77134130
Si       6.11684911       1.05322062      -1.52042967
Si       3.45200225       0.54015799      -1.80840440
Si      -1.66286120       0.02709484       9.00890843
Si      -1.86001175      -0.02919892       9.91757258
Si      -8.03968913       2.62691494       5.23708041
Si       1.12546950      -0.10410274       3.09138859
Si      -5.93173553       4.66196981       5.46855705
Si      -4.08495925      -1.01086147       8.43332811
Si      -3.57401933       5.57264270      -0.04892157
Si       0.59582616       0.63998998       4.10421834
Si      -0.55856606       5.48017553      -0.31932998
Si      -1.61824463      -0.89189567       3.51823022
Si       5.18013995      -4.82182041       7.60723763
Si       0.75746207       0.81361741       3.13594448
Si      -5.64933668       3.73437037       5.79905646
Si      -5.51895822       3.99218395       4.82169417
Si      -1.32731480      -0.84775995       8.99686071
22
Lattice="9.004767674875884 -2.9106109101155244 -1.188340952495931 -8.196688948522668 9.370256773558728 -1.7499775708768843 -4.973543821594141 -1.4432563390941104 11.718106704734017" Properties=species:S:1:pos:R:3 unique_starting_index=18 config_type=initial n_minim_iter=14 stress="5.67459936644969e-05 3.456794604210022e-05 8.737080240051718e-05 3.456794604210022e-05 5.816480523571236e-05 -9.279463112035924e-05 8.737080240051718e-05 -9.279463112035924e-05 4.200215100645005e-05" pbc="T T T"
Si      -0.94033147       6.28251557      -0.01098044
Si       1.07920034       0.20264234       9.45114763
Si      -4.23329693      -1.22379609       9.40374801
Si       0.75929705       0.37097811      10.50061669
Si      -8.27113781       3.93732625      10.77069016
Si       6.11686160       1.05320989      -1.52060641
Si       3.45200351       0.54020612      -1.80826866
Si      -1.66226065       0.02573500       9.00870958
Si      -1.85949514      -0.03020026       9.91734722
Si      -8.03985780       2.62689198       5.23629680
Si       1.12554510      -0.10431665       3.09138648
Si      -5.93154876       4.66158739       5.46781198
Si      -4.08459311      -1.01171511       8.43346726
Si      -3.57432517       5.57286236      -0.04933829
Si       0.59609344       0.63969065       4.10421958
Si      -0.55897141       5.48070147      -0.31977416
Si      -1.61829179      -0.89195767       3.51832837
Si       5.18091181      -4.82310031       7.60765505
Si       0.75756054       0.81346173       3.13586984
Si      -5.64918969       3.73374794       5.79823158
Si      -5.51904542       3.99218984       4.82081181
Si      -1.32676563      -0.84913647       8.99684602
22
Lattice="9.005565387450766 -2.9115553066567426 -1.188528624235432 -8.197931195180475 9.371439463583513 -1.7496142342079972 -4.973901887881938 -1.4426611386227537 11.717980550003414" Properties=species:S:1:pos:R:3 unique_starting_index=18 config_type=initial n_minim_iter=15 stress="8.58828452962165e-05 -5.247741334068083e-06 1.4953679913157895e-05 -5.247741334068083e-06 4.39832436390256e-05 7.364500257528705e-05 1.4953679913157895e-05 7.364500257528705e-05 3.689506663123249e-05" pbc="T T T"
Si      -0.94096351       6.28311499      -0.01077337
Si       1.07885788       0.20333044       9.45092237
Si      -4.23315312      -1.22395535       9.40383592
Si       0.75917682       0.37090925      10.50050144
Si      -8.27233074       3.93880644      10.77090413
Si       6.11717525       1.05275867      -1.52125839
Si       3.45202733       0.54000045      -1.80826642
Si      -1.66236071       0.02556809       9.00846014
Si      -1.85974291      -0.02985991       9.91716093
Si      -8.04080546       2.62809318       5.23630798
Si       1.12551873      -0.10406787       3.09121206
Si      -5.93223280       4.66218892       5.46826782
Si      -4.08492056      -1.01116744       8.43369252
Si      -3.57485775       5.57303523      -0.04867341
Si       0.59614611       0.63986634       4.10418990
Si      -0.55963912       5.48129946      -0.31944549
Si      -1.61857516      -0.89132529       3.51857395
Si       5.18168895      -4.82365016       7.60679731
Si       0.75744628       0.81375111       3.13572191
Si      -5.64993177       3.73416187       5.79807491
Si      -5.51984848       3.99321300       4.82073663
Si      -1.32672824      -0.84931103       8.99681727
22
Lattice="9.00617786191967 -2.9123063476241207 -1.1883936922077296 -8.198922687133768 9.37273995185469 -1.7499650378919624 -4.974040928500794 -1.4429157235084087 11.717871417275814" Properties=species:S:1:pos:R:3 unique_starting_index=18 config_type=initial n_minim_iter=16 stress="7.030258536006851e-05 -5.879844755177588e-06 4.447011721523448e-05 -5.879844755177588e-06 9.329642525143327e-05 -3.849003957062872e-05 4.447011721523448e-05 -3.849003957062872e-05 2.0736279935953666e-05" pbc="T T T"
Si      -0.94147808       6.28381734      -0.01104138
Si       1.07860171       0.20349751       9.45074396
Si      -4.23305433      -1.22495312       9.40380441
Si       0.75934051       0.37018564      10.50041666
Si      -8.27323832       3.93963579      10.77076301
Si       6.11746682       1.05260582      -1.52184184
Si       3.45204573       0.54008805      -1.80816846
Si      -1.66217030       0.02489403       9.00826223
Si      -1.85972406      -0.03007853       9.91697597
Si      -8.04146661       2.62879457       5.23603395
Si       1.12543589      -0.10402941       3.09105923
Si      -5.93266852       4.66241890       5.46847938
Si      -4.08520719      -1.01117172       8.43382904
Si      -3.57521047       5.57316363      -0.04849860
Si       0.59617885       0.63977880       4.10403675
Si      -0.56018381       5.48186838      -0.31946791
Si      -1.61879506      -0.89109903       3.51880865
Si       5.18220332      -4.82476570       7.60627704
Si       0.75742049       0.81382261       3.13557600
Si      -5.65020554       3.73431551       5.79757368
Si      -5.52036829       3.99387976       4.82040455
Si      -1.32656247      -0.84998279       8.99685755
22
Lattice="9.006702766213234 -2.912783364666183 -1.188719886376465 -8.19961359668015 9.373257428292748 -1.7495665597566117 -4.974515621766618 -1.442502814246214 11.718098891776378" Properties=species:S:1:pos:R:3 unique_starting_index=18 config_type=initial n_minim_iter=17 stress="6.1647778570067e-05 -2.461067897475485e-05 2.304635441962239e-05 -2.461067897475485e-05 8.605315957669196e-05 3.980737155666152e-08 2.304635441962239e-05 3.980737155666152e-08 3.2832564123655944e-05" pbc="T T T"
Si      -0.94172684       6.28410309      -0.01099052
Si       1.07815381       0.20423245       9.45081763
Si      -4.23318561      -1.22535486       9.40404725
Si       0.75924337       0.37004234      10.50064540
Si      -8.27424519       3.94084850      10.77137819
Si       6.11786929       1.05240564      -1.52252907
Si       3.45210383       0.54008422      -1.80814018
Si      -1.66234654       0.02474093       9.00836391
Si      -1.86014110      -0.02963930       9.91701231
Si      -8.04207452       2.62940224       5.23629107
Si       1.12518132      -0.10386531       3.09098149
Si      -5.93331280       4.66260411       5.46928704
Si      -4.08557891      -1.01059183       8.43422623
Si      -3.57549790       5.57300575      -0.04790223
Si       0.59604726       0.63992195       4.10394414
Si      -0.56052711       5.48204423      -0.31911462
Si      -1.61900394      -0.89073211       3.51890802
Si       5.18256302      -4.82501134       7.60552597
Si       0.75735999       0.81398049       3.13562145
Si      -5.65054939       3.73448051       5.79756962
Si      -5.52108795       3.99440503       4.82056821
Si      -1.32694938      -0.85007418       8.99705411
22
Lattice="9.00695153978378 -2.9127605806455943 -1.1891418293005158 -8.199781011626095 9.372869067103945 -1.7489711038057874 -4.9750228954538915 -1.4420162136885206 11.718294966029838" Properties=species:S:1:pos:R:3 unique_starting_index=18 config_type=initial n_minim_iter=18 stress="2.792849166164561e-05 -2.8294250317842382e-05 2.9147062936530262e-05 -2.8294250317842382e-05 7.748117533275875e-05 -8.268361977729933e-06 2.9147062936530262e-05 -8.268361977729933e-06 1.707602364692156e-05" pbc="T T T"
Si      -0.94175317       6.28395182      -0.01104663
Si       1.07746772       0.20528228       9.45084307
Si      -4.23324700      -1.22574950       9.40430960
Si       0.75885577       0.36998498      10.50085751
Si      -8.27506535       3.94172039      10.77215235
Si       6.11820024       1.05215363      -1.52337275
Si       3.45228673       0.54022670      -1.80805242
Si      -1.66247181       0.02480813       9.00845483
Si      -1.86063378      -0.02888838       9.91699456
Si      -8.04238086       2.62953881       5.23668469
Si       1.12496174      -0.10372769       3.09094044
Si      -5.93368567       4.66243064       5.47019717
Si      -4.08624600      -1.00999374       8.43464069
Si      -3.57560980       5.57243139      -0.04707345
Si       0.59594892       0.64012080       4.10394316
Si      -0.56057270       5.48174482      -0.31880151
Si      -1.61913878      -0.89037176       3.51893158
Si       5.18265650      -4.82464474       7.60449518
Si       0.75730656       0.81415126       3.13569499
Si      -5.65073674       3.73404558       5.79760804
Si      -5.52161854       3.99468656       4.82080120
Si      -1.32719048      -0.84998688       8.99731359
22
Lattice="9.007067887906159 -2.9123542746767415 -1.1898256423733224 -8.199605642464405 9.371572262133798 -1.747878813375692 -4.975731771469602 -1.4411289683902329 11.718477531995255" Properties=species:S:1:pos:R:3 unique_starting_index=18 config_type=initial n_minim_iter=19 stress="-1.3073039395639511e-05 -2.6623808927352392e-05 2.2529191317397465e-05 -2.6623808927352392e-05 1.4008796538826024e-05 1.6180050710327374e-05 2.2529191317397465e-05 1.6180050710327374e-05 -1.4026699745182009e-05" pbc="T T T"
Si      -0.94163483       6.28334982      -0.01103339
Si       1.07659631       0.20699044       9.45084263
Si      -4.23331921      -1.22615842       9.40465838
Si       0.75861484       0.37021364      10.50111678
Si      -8.27608028       3.94282772      10.77343053
Si       6.11870376       1.05192201      -1.52464086
Si       3.45220155       0.54049112      -1.80797990
Si      -1.66291659       0.02511060       9.00836371
Si      -1.86147586      -0.02766669       9.91689860
Si      -8.04270905       2.62937327       5.23734560
Si       1.12477191      -0.10354886       3.09088320
Si      -5.93386426       4.66196955       5.47152550
Si      -4.08718068      -1.00892892       8.43525772
Si      -3.57546270       5.57139748      -0.04566693
Si       0.59576580       0.64038856       4.10405075
Si      -0.56050119       5.48087232      -0.31842649
Si      -1.61953909      -0.88985799       3.51891172
Si       5.18252819      -4.82355377       7.60280376
Si       0.75710547       0.81438887       3.13573612
Si      -5.65062222       3.73311741       5.79779030
Si      -5.52201348       3.99505014       4.82125505
Si      -1.32755780      -0.84968642       8.99760646
22
Lattice="9.007044220147408 -2.912001155556535 -1.190310096094054 -8.199336442655497 9.3705959820561 -1.7471119000143802 -4.976186846342786 -1.440525848753769 11.718661173186138" Properties=species:S:1:pos:R:3 unique_starting_index=18 config_type=initial n_minim_iter=20 stress="-4.493977631871721e-05 -2.42364290526897e-05 2.4175986505408837e-05 -2.42364290526897e-05 -2.0847546566873285e-05 5.5423961548687e-06 2.4175986505408837e-05 5.5423961548687e-06 -2.9011862493170624e-05" pbc="T T T"
Si      -0.94129255       6.28292252      -0.01096655
Si       1.07590528       0.20825763       9.45076732
Si      -4.23341279      -1.22662217       9.40501984
Si       0.75837143       0.37031833      10.50128288
Si      -8.27697598       3.94358493      10.77447357
Si       6.11899062       1.05179930      -1.52569959
Si       3.45204283       0.54086119      -1.80794112
Si      -1.66322240       0.02533717       9.00825371
Si      -1.86192608      -0.02672655       9.91687377
Si      -8.04292929       2.62912132       5.23784272
Si       1.12470464      -0.10345695       3.09089210
Si      -5.93396305       4.66151511       5.47251722
Si      -4.08772308      -1.00798051       8.43585268
Si      -3.57535327       5.57060668      -0.04455001
Si       0.59561385       0.64049567       4.10417309
Si      -0.56021412       5.48028757      -0.31810602
Si      -1.61966633      -0.88938619       3.51894740
Si       5.18238094      -4.82275592       7.60153841
Si       0.75691610       0.81450853       3.13576817
Si      -5.65031500       3.73232176       5.79792548
Si      -5.52224308       3.99538847       4.82157579
Si      -1.32779940      -0.84950076       8.99787788
22
Lattice="9.00697090287637 -2.9118605991520305 -1.19072994850286 -8.19908410875237 9.370182345702139 -1.7464205365517131 -4.976502346195894 -1.4399632105946631 11.71889759138754" Properties=species:S:1:pos:R:3 unique_starting_index=18 config_type=initial n_minim_iter=21 stress="-6.125927631589575e-05 -2.7141820184493008e-05 2.884121425239578e-05 -2.7141820184493008e-05 -4.2502101280394e-06 -1.7929300158303253e-05 2.884121425239578e-05 -1.7929300158303253e-05 -4.392335916570981e-05" pbc="T T T"
Si      -0.94125229       6.28267321      -0.01085676
Si       1.07543890       0.20956298       9.45060674
Si      -4.23351546      -1.22706004       9.40546051
Si       0.75820330       0.37056196      10.50138448
Si      -8.27765017       3.94445998      10.77558161
Si       6.11921231       1.05178779      -1.52667617
Si       3.45190756       0.54130691      -1.80792607
Si      -1.66337156       0.02563890       9.00819549
Si      -1.86221199      -0.02576239       9.91687412
Si      -8.04291332       2.62905861       5.23835017
Si       1.12482363      -0.10333741       3.09100616
Si      -5.93414595       4.66124133       5.47346506
Si      -4.08816412      -1.00695007       8.43654546
Si      -3.57524012       5.57013349      -0.04341684
Si       0.59564093       0.64060179       4.10432333
Si      -0.56014448       5.47996632      -0.31771101
Si      -1.61989110      -0.88902787       3.51898161
Si       5.18226227      -4.82217660       7.60047457
Si       0.75691870       0.81463022       3.13587754
Si      -5.65000934       3.73179713       5.79803897
Si      -5.52247941       3.99593903       4.82185446
Si      -1.32801986      -0.84929169       8.99816756
