24
Lattice="8.214476907482014 0.742698815136601 -1.4069054808642933 -3.4640424124721045 8.190600358333272 0.9180611627673176 -1.463142085774097 0.25771382168541285 9.537952566859024" Properties=species:S:1:pos:R:3 unique_starting_index=90 config_type=initial n_minim_iter=1 energy=-3892.119797607954 free_energy=-3892.119797607954 pbc="T T T"
Si       5.28020617       1.34590987       6.02561529
Si       0.62836166       3.64665668       0.60271035
Si       4.84550218       6.84268985       1.20528602
Si       0.84657210       0.86991466       2.30353501
Si       3.32128720       4.00554376       8.24858721
Si      -3.21601311       6.34924874       8.34713986
Si       0.05877205       2.67615598       3.68509433
Si       1.61328117       5.83921100       7.38630527
Si      -2.86658759       8.29057335       8.05589176
Si       4.68330863       3.26235303       4.99572143
Si       0.81435547       5.62673757       1.93485720
Si       2.90754514       8.56139093       1.73093564
Si       3.91137715       8.61959278      -0.01115384
Si       5.59165666       3.38754016       7.18558566
Si      -1.26753314       5.15730703       1.32939068
Si      -3.75365189       8.29109151       9.84892764
Si      -0.98640170       2.44420295       1.56751141
Si       3.53557103       5.98581676       7.94822894
Si       1.75592698       1.50534670       7.93491935
Si      -1.31990213       3.83658758       5.41209864
Si       0.27551266       6.86924195       5.69640970
Si       4.23725158       1.37063738       0.46971544
Si       4.97123013       4.51804520       3.47396005
Si       1.09815808       6.85830151       3.86974680
24
Lattice="8.21790933802197 0.7493224968401683 -1.4103428616651825 -3.4599089761157837 8.203637358598893 0.9212102465235016 -1.4653764202618027 0.2586391567304617 9.551055117617851" Properties=species:S:1:pos:R:3 unique_starting_index=90 config_type=initial n_minim_iter=2 stress="0.003401252472743932 -0.0014293172173544453 -0.0035562225045684195 -0.0014293172173544453 -0.0014780660430857874 -0.0005207204476652704 -0.0035562225045684195 -0.0005207204476652704 0.006342910927318872" pbc="T T T"
Si       5.28151992       1.35254180       6.03272006
Si       0.63095112       3.65422682       0.60404491
Si       4.85141351       6.85884473       1.20725034
Si       0.84647153       0.87260254       2.30688330
Si       3.32328129       4.01558175       8.25948163
Si      -3.21435906       6.35985580       8.36042776
Si       0.05998260       2.68148681       3.69051514
Si       1.61628065       5.85203133       7.39655718
Si      -2.86364279       8.30523887       8.06684729
Si       4.68651154       3.27246645       5.00231310
Si       0.81841114       5.63810926       1.93856948
Si       2.91368044       8.57956619       1.73397966
Si       3.91817233       8.63855222      -0.01035027
Si       5.59365446       3.39852671       7.19461497
Si      -1.26512182       5.16575576       1.33170275
Si      -3.75108805       8.30572552       9.86359433
Si      -0.98538674       2.44816631       1.57032224
Si       3.53892372       6.00042407       7.95918774
Si       1.75638369       1.51117507       7.94623122
Si      -1.31855249       3.84321264       5.42039662
Si       0.27939887       6.88301667       5.70517828
Si       4.23929334       1.37607756       0.46963244
Si       4.97460674       4.53096627       3.47739526
Si       1.10194024       6.87231802       3.87555155
24
Lattice="8.212789250121949 0.761258415226454 -1.4032381114817467 -3.446770503567394 8.22234011867208 0.9210645813201105 -1.4565433300094368 0.26078001756985514 9.548081920889746" Properties=species:S:1:pos:R:3 unique_starting_index=90 config_type=initial n_minim_iter=3 stress="0.008835401189084545 0.004637742287560859 0.0005913944340394205 0.004637742287560859 0.01712224065980592 -0.0032575374112502027 0.0005913944340394205 -0.0032575374112502027 0.008124687438384844" pbc="T T T"
Si       5.28473201       1.36446080       6.03601988
Si       0.63581522       3.66597479       0.60592108
Si       4.85819354       6.88450063       1.21386955
Si       0.84790154       0.87723264       2.30802947
Si       3.33284029       4.03227275       8.26168570
Si      -3.19743543       6.37572891       8.35947999
Si       0.06660056       2.68979208       3.69094884
Si       1.62888126       5.87244272       7.39804411
Si      -2.84544368       8.32738273       8.06329492
Si       4.69292624       3.28959026       5.00692677
Si       0.82749003       5.65563700       1.94169241
Si       2.92391247       8.60782252       1.73883646
Si       3.92620598       8.66816279      -0.00344150
Si       5.59907852       3.41726774       7.19891055
Si      -1.25747602       5.17794552       1.33118149
Si      -3.72953662       8.32797241       9.85957400
Si      -0.98038953       2.45396777       1.57035405
Si       3.55028488       6.02391725       7.96278612
Si       1.76457487       1.52168622       7.94827034
Si      -1.30794095       3.85317615       5.42002040
Si       0.29338729       6.90438675       5.70669112
Si       4.23855607       1.38541683       0.47328477
Si       4.97901578       4.55244385       3.48044535
Si       1.11218227       6.89404163       3.87794741
24
Lattice="8.150953353108152 0.7612882943976215 -1.4121561913714529 -3.4120291404768492 8.204751168220971 0.9680181810146814 -1.4579825206356942 0.30674346452254386 9.560088853142107" Properties=species:S:1:pos:R:3 unique_starting_index=90 config_type=initial n_minim_iter=4 stress="-0.0017847452443041764 0.008161855870864518 -0.00019165194357054961 0.008161855870864518 0.009817683024568539 0.006632232871149492 -0.00019165194357054961 0.006632232871149492 0.006210741254551172" pbc="T T T"
Si       5.23549776       1.39424165       6.03981244
Si       0.63491550       3.66520946       0.62552087
Si       4.82630788       6.88108324       1.24661941
Si       0.83298332       0.88997000       2.31716281
Si       3.29915105       4.06033774       8.28349553
Si      -3.17418857       6.40151840       8.40952587
Si       0.06588853       2.69959608       3.70892112
Si       1.61387732       5.89597461       7.42984261
Si      -2.82455861       8.34428962       8.10112467
Si       4.65995958       3.31781306       5.02270476
Si       0.82994189       5.65481479       1.97635022
Si       2.90616680       8.60157322       1.78004285
Si       3.90237669       8.65726883       0.03877389
Si       5.54138902       3.45072980       7.21530047
Si      -1.24784767       5.16560932       1.35401146
Si      -3.70027871       8.35829244       9.90675938
Si      -0.97178981       2.45366134       1.58721288
Si       3.51542573       6.05170049       7.99720827
Si       1.74466594       1.56534407       7.96904716
Si      -1.29860535       3.86501111       5.44829340
Si       0.29573524       6.91779467       5.74786512
Si       4.20430338       1.38941848       0.47407505
Si       4.93445980       4.57127148       3.49239024
Si       1.10106472       6.89895020       3.91286088
24
Lattice="8.056442210088626 0.6952818098110372 -1.4519521358691696 -3.434505031770808 8.15905626414212 0.990203039069744 -1.486809749075049 0.3204398911598647 9.582600032030353" Properties=species:S:1:pos:R:3 unique_starting_index=90 config_type=initial n_minim_iter=5 stress="-0.004383107887092106 0.00514620588537037 -0.006303212774126115 0.00514620588537037 0.006239506719369081 -0.00974910007227742 -0.006303212774126115 -0.00974910007227742 0.019503830015726177" pbc="T T T"
Si       5.13420694       1.33782015       6.02255098
Si       0.60180494       3.64126982       0.63066678
Si       4.71693304       6.79012679       1.24287259
Si       0.78727321       0.88468565       2.33003959
Si       3.19258921       3.98148511       8.27974745
Si      -3.21258990       6.37432360       8.46152924
Si       0.03547003       2.66908140       3.72039257
Si       1.51624810       5.83006356       7.42829970
Si      -2.87866962       8.30788452       8.09490293
Si       4.58127718       3.27318389       5.01807958
Si       0.78844511       5.60511345       1.99717543
Si       2.79660632       8.51161901       1.77831931
Si       3.78877746       8.56882374       0.03652584
Si       5.39541071       3.38191288       7.20497013
Si      -1.28860276       5.11199575       1.34512949
Si      -3.74442854       8.32925797       9.91050461
Si      -0.98401974       2.43518285       1.60139164
Si       3.39519962       5.97093609       8.00621597
Si       1.67813396       1.54955467       7.99461830
Si      -1.32633087       3.82697133       5.47267127
Si       0.23297141       6.85903804       5.76528727
Si       4.13746308       1.34819376       0.45408556
Si       4.80965843       4.52107700       3.45108313
Si       1.00714070       6.83307661       3.91255691
24
Lattice="8.016892225429343 0.5334135178594103 -1.4875725223398752 -3.558719798063231 8.157986842622364 1.132603345675037 -1.5444047895478556 0.4861679832152057 9.563811942104397" Properties=species:S:1:pos:R:3 unique_starting_index=90 config_type=initial n_minim_iter=6 stress="-0.006142808762661186 0.0014362153845280756 0.006072534994459351 0.0014362153845280756 0.001485085477388986 0.010417684195902565 0.006072534994459351 0.010417684195902565 -0.0076010929569515495" pbc="T T T"
Si       5.04730739       1.31032240       5.98238380
Si       0.54113670       3.63068745       0.68950322
Si       4.57885136       6.67451193       1.33704318
Si       0.71804780       0.91234196       2.35497559
Si       3.05925677       3.96701259       8.28276966
Si      -3.33783598       6.49611265       8.58730219
Si      -0.01902007       2.68337210       3.75648697
Si       1.35585632       5.84825790       7.46113557
Si      -3.03478914       8.42580550       8.14291569
Si       4.51988851       3.28088288       5.02091248
Si       0.71327081       5.57914459       2.10540288
Si       2.61892966       8.42392484       1.89509815
Si       3.61948613       8.45781506       0.16067448
Si       5.22521659       3.36381178       7.20095532
Si      -1.39815607       5.07206775       1.38759003
Si      -3.89197219       8.48376000       9.95697865
Si      -1.02806419       2.44325784       1.65019363
Si       3.23835638       5.96673143       8.06689506
Si       1.59792453       1.63843288       8.01688706
Si      -1.40252890       3.86354133       5.53229117
Si       0.11471024       6.87931625       5.85777154
Si       4.08281194       1.27564565       0.44313735
Si       4.65841252       4.48557158       3.44148622
Si       0.83856296       6.81306769       3.98674729
24
Lattice="8.002514133809784 0.5002299577483156 -1.5866999784747229 -3.582566463219549 8.123284535947679 1.1975194233677462 -1.6539989264804287 0.5143076613020237 9.601929957205252" Properties=species:S:1:pos:R:3 unique_starting_index=90 config_type=initial n_minim_iter=7 stress="-0.003921942807603397 0.007172370717185958 0.002853504314344504 0.007172370717185958 0.007326037326738822 0.007317356996008862 0.002853504314344504 0.007317356996008862 -0.010462380973807675" pbc="T T T"
Si       4.94971204       1.28350922       5.92894806
Si       0.52522082       3.62810417       0.69953821
Si       4.52818221       6.62720371       1.32365688
Si       0.65278126       0.92102245       2.37426231
Si       2.93487019       3.91361603       8.26347976
Si      -3.41964698       6.50695753       8.68450717
Si      -0.06049791       2.66310853       3.78007218
Si       1.23298285       5.81520345       7.45479869
Si      -3.13498447       8.42195788       8.17334324
Si       4.47241406       3.29386450       4.98028688
Si       0.69705700       5.55424334       2.14324951
Si       2.54641614       8.37839495       1.90422548
Si       3.57421239       8.41923573       0.14579723
Si       5.06964080       3.33967901       7.16324369
Si      -1.44252233       5.01961356       1.38549164
Si      -3.99049228       8.48478517       9.97028742
Si      -1.05248379       2.42523463       1.68196512
Si       3.10691933       5.92024071       8.08088071
Si       1.49414387       1.65334316       8.04071832
Si      -1.48110967       3.83218598       5.57303668
Si       0.05415442       6.85266298       5.88461285
Si       4.04945878       1.25728435       0.39607054
Si       4.57703649       4.48064477       3.37759588
Si       0.74128385       6.78148442       4.00085577
24
Lattice="7.943439839006256 0.39953126324509136 -1.5841668605870767 -3.652293602298088 8.113437992943684 1.2243416614990705 -1.625706955917157 0.555447443831868 9.728672520405803" Properties=species:S:1:pos:R:3 unique_starting_index=90 config_type=initial n_minim_iter=8 stress="0.007379429742143389 0.005598050945327624 0.013200547798056584 0.005598050945327624 0.0265152383292978 -0.010745701342317204 0.013200547798056584 -0.010745701342317204 0.013636300362674639" pbc="T T T"
Si       4.91529377       1.20808528       6.01749917
Si       0.48463508       3.62131177       0.72720701
Si       4.43053782       6.53778103       1.40258851
Si       0.60800307       0.92219875       2.43741207
Si       2.88965121       3.83387318       8.38408781
Si      -3.42355641       6.54362355       8.84498961
Si      -0.06714018       2.63890010       3.85499295
Si       1.15826157       5.76453354       7.55134911
Si      -3.16960695       8.44382768       8.23635962
Si       4.46762950       3.27191255       5.06467845
Si       0.66785376       5.51936445       2.22226716
Si       2.43041672       8.30713690       1.96335670
Si       3.43798034       8.35089314       0.20768547
Si       4.96787073       3.26839387       7.29074974
Si      -1.51059892       4.97137178       1.36921300
Si      -4.01851722       8.51821977      10.04329746
Si      -1.07473851       2.41286697       1.71951117
Si       3.03950195       5.82919174       8.24174396
Si       1.49002146       1.65178615       8.17238254
Si      -1.52758866       3.80724422       5.65256478
Si       0.02882059       6.82158081       5.97234171
Si       3.99992039       1.20517101       0.41839981
Si       4.51202207       4.44073038       3.42116942
Si       0.63200814       6.74366182       4.08746813
24
Lattice="7.921939629865382 0.40487567305443367 -1.6282803165534934 -3.640620588600254 8.126753790492733 1.2442609939227764 -1.6764203547163872 0.5576808268238571 9.709475458942078" Properties=species:S:1:pos:R:3 unique_starting_index=90 config_type=initial n_minim_iter=9 stress="-0.023824702376108148 0.007100211178361891 0.0018717676761900869 0.007100211178361891 0.031898653858469565 -0.01220541813394468 0.0018717676761900869 -0.01220541813394468 0.0011534580574345838" pbc="T T T"
Si       4.85986353       1.20612328       5.96567910
Si       0.48056105       3.63536336       0.72465474
Si       4.41056487       6.55477125       1.38224402
Si       0.58076226       0.92629628       2.43494829
Si       2.82982847       3.82948584       8.33846991
Si      -3.45031627       6.56127717       8.85242333
Si      -0.08330645       2.63941453       3.85100864
Si       1.10851240       5.77187810       7.51573153
Si      -3.18826053       8.47077434       8.21707566
Si       4.43677272       3.29507964       5.01729531
Si       0.66637021       5.53219577       2.22281125
Si       2.41413160       8.32784633       1.94132272
Si       3.42015446       8.37826968       0.20072843
Si       4.89078246       3.27581111       7.24144298
Si      -1.51742242       4.96924163       1.36012199
Si      -4.05390566       8.54107992      10.01844485
Si      -1.08173660       2.41299201       1.72480139
Si       2.98138544       5.83362484       8.20647920
Si       1.43753653       1.65554227       8.13515722
Si      -1.56351218       3.80616093       5.64247497
Si       0.00974578       6.83718743       5.95460076
Si       3.97908508       1.21094789       0.39461441
Si       4.48431717       4.46235796       3.38018553
Si       0.59864310       6.76020173       4.07417560
24
Lattice="8.086182143049394 0.46185179818495287 -1.6682196158137854 -3.6435885580986054 8.021875963254027 1.2703239567713154 -1.7569110578622051 0.5556891851343185 9.669598955022531" Properties=species:S:1:pos:R:3 unique_starting_index=90 config_type=initial n_minim_iter=10 stress="-0.008625514406796384 0.0015455405359785254 0.006817201898312617 0.0015455405359785254 -0.004371933703597933 -0.006576567093003157 0.006817201898312617 -0.006576567093003157 -0.03118155831928639" pbc="T T T"
Si       4.92796167       1.22744299       5.89813841
Si       0.51697707       3.61735122       0.72601090
Si       4.55114907       6.53306861       1.37459387
Si       0.56735409       0.92643617       2.43502558
Si       2.86970806       3.80514550       8.27634927
Si      -3.49015904       6.50562707       8.85542130
Si      -0.07295925       2.61093197       3.84921831
Si       1.13456080       5.72739101       7.46509810
Si      -3.19276866       8.39145643       8.18521984
Si       4.54974014       3.32903337       4.95757691
Si       0.73751335       5.49084615       2.23232774
Si       2.52783035       8.27635004       1.91903147
Si       3.54316724       8.34215155       0.21879415
Si       4.94266371       3.28872364       7.18299136
Si      -1.52344264       4.89251016       1.34046467
Si      -4.10712084       8.45828858       9.96493346
Si      -1.09619736       2.37716306       1.73101665
Si       3.04294888       5.79298412       8.16537817
Si       1.43891691       1.66033227       8.07016166
Si      -1.60364161       3.75144745       5.62119119
Si       0.06168233       6.78685123       5.93376550
Si       4.05784215       1.23384411       0.37486047
Si       4.60403614       4.48185212       3.33385005
Si       0.63007420       6.71283737       4.05911085
24
Lattice="8.13908154575316 0.40985565176137156 -1.6795013473347216 -3.7086050024139996 8.064726931732766 1.3536501178558347 -1.7759813055859548 0.6487848860847661 9.748420202708827" Properties=species:S:1:pos:R:3 unique_starting_index=90 config_type=initial n_minim_iter=11 stress="0.003307217986626231 -0.002067997717001746 0.014634667385644716 -0.002067997717001746 0.007121279106698335 0.00011419908375191335 0.014634667385644716 0.00011419908375191335 -0.027075111331270232" pbc="T T T"
Si       4.94979324       1.24415820       5.94515481
Si       0.49715942       3.63505134       0.76778652
Si       4.55325873       6.53784112       1.45609505
Si       0.55379337       0.94323989       2.47232321
Si       2.86343272       3.84414183       8.36760442
Si      -3.54202691       6.63221828       8.99719462
Si      -0.08098671       2.64346680       3.91620669
Si       1.11729475       5.78759544       7.56831653
Si      -3.24495516       8.49538851       8.32658832
Si       4.58054818       3.36811165       5.01908548
Si       0.72788059       5.51728083       2.31057988
Si       2.50084062       8.29896916       2.00876761
Si       3.51581586       8.35328757       0.31157862
Si       4.93220263       3.32665675       7.27030176
Si      -1.56925523       4.90715727       1.37409305
Si      -4.17863373       8.59201477      10.08082628
Si      -1.12164040       2.39919654       1.76809554
Si       3.02257777       5.85269116       8.28095144
Si       1.43943932       1.72049177       8.12923149
Si      -1.64137317       3.80366998       5.69178153
Si       0.04205725       6.85659810       6.04566340
Si       4.07415709       1.22160339       0.39325923
Si       4.61902263       4.51473772       3.39019298
Si       0.58660712       6.76260385       4.14893636
24
Lattice="8.211474201534285 0.3778367041082523 -1.7475190177412965 -3.7470860153578314 8.010941145512922 1.509610832179464 -1.8482231643392153 0.7835521264930251 9.940035185905586" Properties=species:S:1:pos:R:3 unique_starting_index=90 config_type=initial n_minim_iter=12 stress="0.008513856329200166 -0.0052756767157640565 0.004858780851780441 -0.0052756767157640565 -0.009928613318298422 0.005828673030930848 0.004858780851780441 0.005828673030930848 0.007390908994952589" pbc="T T T"
Si       4.94695525       1.29109318       6.02739891
Si       0.48113816       3.62484069       0.83919904
Si       4.58799223       6.50120133       1.57208699
Si       0.52308456       0.96195332       2.54485856
Si       2.82992830       3.90450404       8.54479456
Si      -3.61744440       6.71481704       9.30568197
Si      -0.09207169       2.66501782       4.05031777
Si       1.09943121       5.82302488       7.77069374
Si      -3.29883889       8.55633878       8.60363169
Si       4.62085669       3.42811357       5.12209235
Si       0.73931044       5.49954482       2.44660200
Si       2.49244077       8.25517103       2.16475741
Si       3.52932968       8.29650036       0.43158544
Si       4.88152025       3.38393027       7.42782074
Si      -1.60731817       4.85849994       1.43704463
Si      -4.26952599       8.68428507      10.32658563
Si      -1.15002784       2.40045332       1.84045315
Si       2.97535277       5.88014406       8.49190709
Si       1.41508647       1.81938234       8.26768495
Si      -1.69352007       3.83070141       5.84090319
Si       0.03602304       6.89424099       6.26141587
Si       4.09417452       1.21672418       0.40588464
Si       4.64316324       4.54872010       3.47511422
Si       0.54243813       6.76798604       4.30853058
24
Lattice="8.287707159131566 0.3585053648607095 -1.7997321391578656 -3.7952396349130963 7.97428458113789 1.54341745909469 -1.9276734892229221 0.7988954379463625 9.921043488995355" Properties=species:S:1:pos:R:3 unique_starting_index=90 config_type=initial n_minim_iter=13 stress="0.0010309293909678044 -0.006943529399144645 0.004331803618473833 -0.006943529399144645 -0.010435218040753818 0.003205824433964589 0.004331803618473833 0.003205824433964589 -0.006802526905952976" pbc="T T T"
Si       4.94331020       1.27116835       5.96595137
Si       0.46476384       3.61268822       0.84678821
Si       4.61391174       6.46249061       1.55754632
Si       0.49858913       0.95554820       2.54394395
Si       2.79092057       3.86748973       8.49528767
Si      -3.70880947       6.70895505       9.33345507
Si      -0.11331475       2.65064294       4.05655816
Si       1.06188850       5.78992470       7.74116752
Si      -3.37310505       8.53233963       8.59060122
Si       4.64295528       3.42238166       5.07460833
Si       0.73327823       5.47137177       2.45509262
Si       2.47937832       8.20953455       2.16645860
Si       3.54129055       8.25459990       0.42330786
Si       4.84377500       3.36055245       7.37809512
Si      -1.64209310       4.82205997       1.43120469
Si      -4.38296343       8.67616758      10.30097812
Si      -1.17723841       2.39120450       1.84604731
Si       2.92840342       5.84609168       8.45219106
Si       1.38117628       1.82262927       8.22640025
Si      -1.74722642       3.80889607       5.83185475
Si       0.01143943       6.87227898       6.24686664
Si       4.11800511       1.20492366       0.38143644
Si       4.65430487       4.53664962       3.42759477
Si       0.49588858       6.74260276       4.30905065
24
Lattice="8.512279991341597 0.37737283179917536 -1.941670764500194 -3.8461486482798106 7.726405282530977 1.6510378354647424 -2.138117111136947 0.8382582742190487 9.905458853112929" Properties=species:S:1:pos:R:3 unique_starting_index=90 config_type=initial n_minim_iter=14 stress="0.006665452575138723 -0.0026556774398438596 -0.005493715075403752 -0.0026556774398438596 -0.010336821358266184 -0.0017079946344775968 -0.005493715075403752 -0.0017079946344775968 -0.0009009412804221678" pbc="T T T"
Si       4.95169405       1.25002406       5.81709271
Si       0.44080615       3.54264569       0.89064210
Si       4.76974281       6.31846781       1.55190154
Si       0.43099221       0.93199497       2.56238715
Si       2.73036271       3.73070595       8.39058240
Si      -3.89084264       6.59724913       9.47850257
Si      -0.13302293       2.57784769       4.10632538
Si       1.00634841       5.63797311       7.68397027
Si      -3.47100837       8.33400593       8.57349448
Si       4.77304370       3.42605854       4.97717859
Si       0.78479635       5.33176293       2.51162527
Si       2.52071550       7.99701084       2.21160429
Si       3.66200079       8.06843346       0.42222856
Si       4.75589537       3.30784016       7.28579129
Si      -1.69252703       4.62581848       1.40941663
Si      -4.60589951       8.53402927      10.23804881
Si      -1.22996168       2.32719303       1.86959785
Si       2.88801354       5.72286168       8.39766057
Si       1.32533415       1.84587797       8.14480610
Si      -1.87430803       3.68731015       5.82018769
Si       0.04267537       6.74322994       6.25511576
Si       4.19672524       1.19861083       0.32446927
Si       4.76799317       4.50672358       3.30951184
Si       0.43112903       6.59614207       4.32861274
24
Lattice="8.587482064924616 0.374158819999658 -1.9995339609540868 -3.8724675310429726 7.62186422268714 1.6838129128758839 -2.2204193138754005 0.8437639415516319 9.89890229750508" Properties=species:S:1:pos:R:3 unique_starting_index=90 config_type=initial n_minim_iter=15 stress="-0.009141162767251697 0.003438584074641867 -0.013591416567468404 0.003438584074641867 9.556218814271899e-05 -0.003976311355455824 -0.013591416567468404 -0.003976311355455824 -0.007420510904592948" pbc="T T T"
Si       4.94328753       1.21713644       5.75131850
Si       0.41046786       3.50844138       0.91371984
Si       4.81815366       6.24687224       1.55123927
Si       0.40711195       0.90960865       2.56770360
Si       2.69350189       3.65145371       8.34213125
Si      -3.97095619       6.54299241       9.53109314
Si      -0.13992807       2.54077236       4.12758227
Si       0.97713845       5.56051181       7.64768048
Si      -3.52839322       8.24284106       8.55383222
Si       4.81542096       3.41299466       4.93371575
Si       0.79235854       5.26683357       2.53185631
Si       2.51039066       7.88821897       2.23006905
Si       3.68951968       7.98235788       0.40234164
Si       4.70380291       3.25948216       7.24593451
Si      -1.72031951       4.53569986       1.39768363
Si      -4.70200710       8.46813944      10.19112521
Si      -1.25547910       2.30167751       1.87359034
Si       2.85609828       5.65499310       8.36602086
Si       1.30635325       1.84212187       8.10018473
Si      -1.92182709       3.62984984       5.80444175
Si       0.05762178       6.68075150       6.26403454
Si       4.21895704       1.18870853       0.29818530
Si       4.80332871       4.47890491       3.25410267
Si       0.39621188       6.52656486       4.32491178
24
Lattice="8.698542193221412 0.34130058766091903 -1.9804732584202362 -3.9602110981222194 7.539109361934952 1.580122443990298 -2.225459075704455 0.7440187485198652 9.809120180775318" Properties=species:S:1:pos:R:3 unique_starting_index=90 config_type=initial n_minim_iter=16 stress="0.0009148149052374795 -0.0013645659473274579 -0.007982742852114241 -0.0013645659473274579 -0.007644405422325824 -0.006054189330472292 -0.007982742852114241 -0.006054189330472292 -0.0009538965037602477" pbc="T T T"
Si       5.01581811       1.07916433       5.67452155
Si       0.33748987       3.45662474       0.90649273
Si       4.87903709       6.14480001       1.50764617
Si       0.44147387       0.83289715       2.52735141
Si       2.73066560       3.48141916       8.23285879
Si      -4.03774444       6.41186924       9.38546463
Si      -0.12183501       2.46851983       4.09150878
Si       1.00004721       5.39974056       7.51599651
Si      -3.62061875       8.07655469       8.37361450
Si       4.88933652       3.29949700       4.87158851
Si       0.76406494       5.17701068       2.47093065
Si       2.47090369       7.73158763       2.17832766
Si       3.69945206       7.87807927       0.27568182
Si       4.76538145       3.08914546       7.15482851
Si      -1.76126972       4.45446415       1.34928776
Si      -4.82213202       8.34263829       9.97648613
Si      -1.28876324       2.27696338       1.81951464
Si       2.88836689       5.49256935       8.22135155
Si       1.38089100       1.74077588       7.98051532
Si      -1.94029885       3.54021691       5.67272641
Si       0.08922045       6.57497891       6.17134951
Si       4.27216504       1.15116465       0.28189395
Si       4.89816248       4.37270987       3.18158654
Si       0.38746050       6.42095059       4.21574565
24
Lattice="8.595459583533625 0.3271524668778833 -1.9412624442605861 -3.9435865294263737 7.547188833163385 1.48442581979927 -2.1520903596983807 0.6594064445754353 9.822393952112728" Properties=species:S:1:pos:R:3 unique_starting_index=90 config_type=initial n_minim_iter=17 stress="-0.019732837951079385 0.002627668315223836 0.000676137768428715 0.002627668315223836 0.006525572925820926 -0.02373743910953323 0.000676137768428715 -0.02373743910953323 0.009402137359427507" pbc="T T T"
Si       4.98199523       0.96740279       5.69110813
Si       0.27917447       3.44803331       0.90289912
Si       4.82647727       6.13943689       1.51982113
Si       0.46792356       0.76991264       2.50871872
Si       2.73054512       3.38792549       8.24247170
Si      -3.98018697       6.36314201       9.34160863
Si      -0.08808025       2.43370130       4.09372790
Si       1.01115411       5.32708519       7.47786519
Si      -3.61457847       8.02390470       8.27348683
Si       4.85628134       3.24391815       4.87817297
Si       0.72588643       5.16226828       2.44863572
Si       2.39033194       7.66968852       2.16287530
Si       3.62584282       7.88183271       0.18127244
Si       4.74715095       2.97399684       7.16468650
Si      -1.77528309       4.43135286       1.32235523
Si      -4.77911627       8.32531308       9.85636341
Si      -1.29052501       2.26614425       1.79826050
Si       2.88587438       5.40417787       8.20293318
Si       1.42095205       1.66414029       7.96665499
Si      -1.86860720       3.49682681       5.60718499
Si       0.14128805       6.55815789       6.17104775
Si       4.22617924       1.13631760       0.28205507
Si       4.85750810       4.33147102       3.19164527
Si       0.39392532       6.40580811       4.16431523
24
Lattice="8.615156349111846 0.2680752496541409 -2.0019922713214306 -4.007226976950079 7.659683494077754 1.6042907792146512 -2.2483213232534602 0.7794183566466167 9.766902000396065" Properties=species:S:1:pos:R:3 unique_starting_index=90 config_type=initial n_minim_iter=18 stress="-0.02676007283370026 0.004148403141209053 -0.003318586783786561 0.004148403141209053 -0.005394588293035777 0.008105801814342574 -0.003318586783786561 0.008105801814342574 -0.009682577594749959" pbc="T T T"
Si       4.91864467       0.97508213       5.58838130
Si       0.21532847       3.48955669       0.95485199
Si       4.78973906       6.21970574       1.58235726
Si       0.46002825       0.76355904       2.46768233
Si       2.63692335       3.50580093       8.19188315
Si      -4.11680856       6.56360785       9.38556944
Si      -0.12143516       2.50349155       4.09970381
Si       0.91290013       5.45102243       7.46224209
Si      -3.77798358       8.20944028       8.32656561
Si       4.79186774       3.29366469       4.84149533
Si       0.64918508       5.24658104       2.50272948
Si       2.29058092       7.71528661       2.25899251
Si       3.57658637       7.95679251       0.20891443
Si       4.67643778       3.02437797       7.08330788
Si      -1.84706434       4.48350809       1.40669973
Si      -4.95896298       8.59359292       9.88887967
Si      -1.34248300       2.30738049       1.83442183
Si       2.79310955       5.51725075       8.17093314
Si       1.34631973       1.75391838       7.87402739
Si      -1.91137633       3.60455736       5.58546495
Si       0.09011092       6.72680171       6.22675928
Si       4.22077652       1.13285273       0.23999124
Si       4.82265522       4.39905511       3.17832095
Si       0.32934401       6.53681773       4.21958341
24
Lattice="8.707509199210499 0.24109409251546862 -1.9973841932576684 -4.0760109706997545 7.760061217499032 1.637129840612652 -2.269761447960828 0.8274113108216765 9.736801918454615" Properties=species:S:1:pos:R:3 unique_starting_index=90 config_type=initial n_minim_iter=19 stress="0.011958679193137117 0.0020242898780160573 -0.006619152829972481 0.0020242898780160573 0.01085641724157128 0.011415901736679774 -0.006619152829972481 0.011415901736679774 0.019935936041932202" pbc="T T T"
Si       4.96906227       0.95919723       5.55464091
Si       0.18412536       3.52974258       0.97679122
Si       4.83210744       6.31085775       1.64758704
Si       0.48493512       0.73961352       2.43163302
Si       2.66948360       3.58401665       8.18264694
Si      -4.19833608       6.69230904       9.40123453
Si      -0.10946480       2.54753980       4.09799660
Si       0.92186050       5.53044635       7.46095190
Si      -3.86721548       8.33222451       8.33653705
Si       4.82991925       3.32071852       4.84436960
Si       0.61141069       5.32291427       2.53127910
Si       2.26013703       7.74891453       2.32453014
Si       3.59555718       8.03983728       0.20582295
Si       4.74410152       3.03862622       7.05765461
Si      -1.88705058       4.53323603       1.46366606
Si      -5.07777774       8.79262419       9.87314117
Si      -1.39176461       2.32715601       1.85734612
Si       2.79986504       5.59254438       8.14951329
Si       1.35707982       1.78585091       7.80837341
Si      -1.91934733       3.68141398       5.54765300
Si       0.11110031       6.86308072       6.25759616
Si       4.26904229       1.13654356       0.22499630
Si       4.89376465       4.44556780       3.20383784
Si       0.33809465       6.64731613       4.25165059
24
Lattice="8.653701695603834 0.2688021640586724 -1.976226881136535 -4.031271151075119 7.792599447640182 1.607930578604363 -2.2303365564623094 0.8017496182917984 9.74897738928123" Properties=species:S:1:pos:R:3 unique_starting_index=90 config_type=initial n_minim_iter=20 stress="0.006590598104213411 -0.0006565685219524973 0.004093740183092721 -0.0006565685219524973 0.016351657123024207 -0.0038856399733503736 0.004093740183092721 -0.0038856399733503736 0.015764820077244744" pbc="T T T"
Si       4.95982483       0.94213011       5.57008195
Si       0.19796493       3.55130287       0.96223298
Si       4.81905533       6.39374801       1.69374912
Si       0.49807216       0.70718010       2.40587928
Si       2.69954136       3.61515228       8.20948693
Si      -4.15430083       6.70263381       9.39535844
Si      -0.07568714       2.55220429       4.08111648
Si       0.95031365       5.53846093       7.47552973
Si      -3.84240195       8.34390493       8.32581614
Si       4.81128243       3.32542457       4.86251700
Si       0.59498013       5.36874375       2.53462433
Si       2.24273773       7.73352097       2.34383662
Si       3.60772109       8.10008530       0.16093097
Si       4.77082102       3.02765001       7.07005578
Si      -1.88324473       4.55153920       1.48741326
Si      -5.02861050       8.84103458       9.84768971
Si      -1.40449422       2.29769687       1.88083340
Si       2.83802491       5.61594910       8.14864175
Si       1.35868387       1.77709543       7.78438194
Si      -1.85602694       3.70328759       5.52215211
Si       0.15712963       6.92818525       6.24973272
Si       4.25960980       1.15210222       0.20782559
Si       4.89731877       4.46933803       3.23676720
Si       0.39871391       6.70224823       4.26347937
24
Lattice="8.637347203071863 0.2781786320874187 -1.990088894146547 -3.999999190022744 7.754761864110344 1.6847342392284093 -2.247533337966063 0.8755882453894646 9.762800014483757" Properties=species:S:1:pos:R:3 unique_starting_index=90 config_type=initial n_minim_iter=21 stress="-0.004620855950318132 0.003134339175089937 -0.0026173959767434914 0.003134339175089937 -0.007604662336043197 0.000971813792261779 -0.0026173959767434914 0.000971813792261779 -0.013231623236559518" pbc="T T T"
Si       4.93887215       0.97676144       5.55990672
Si       0.20845584       3.55357114       0.99150206
Si       4.81525312       6.43245912       1.79941255
Si       0.47980115       0.70125134       2.39600855
Si       2.69837339       3.67661641       8.24554374
Si      -4.15227006       6.74170514       9.48178531
Si      -0.05569171       2.56761141       4.09016518
Si       0.93625756       5.57765054       7.51738302
Si      -3.84098484       8.36462042       8.39291435
Si       4.80602871       3.36158395       4.89344003
Si       0.58743606       5.38770847       2.60481494
Si       2.22434342       7.66591169       2.43756813
Si       3.63237416       8.08749078       0.20783187
Si       4.75198489       3.06751216       7.08879639
Si      -1.88784523       4.52024025       1.55176572
Si      -5.03044016       8.90452837       9.90105178
Si      -1.42497677       2.25854530       1.93490892
Si       2.83363998       5.66704298       8.18805853
Si       1.32888699       1.84263219       7.76279786
Si      -1.82740891       3.73332755       5.54025472
Si       0.20043839       6.96977792       6.31289251
Si       4.26019596       1.16119552       0.18328188
Si       4.90023176       4.50490191       3.26945589
Si       0.42912563       6.73339485       4.34478738
