16
Lattice="5.336244369912262 0.9618401424591972 1.32878560082075 5.892072307190539 12.606304563951097 -2.5509307623377575 2.495535718166201 2.7515086020566843 11.508007985620104" Properties=species:S:1:pos:R:3 unique_starting_index=65 config_type=initial n_minim_iter=1 energy=-2762.6274715159184 free_energy=-2762.6274715159184 pbc="T T T"
Si       9.94969334      11.81628988       3.06408434
Si       8.96971120      11.65845330       2.81864463
Si       8.00508715      12.95031663       7.94063917
Si       9.35571405      12.62731457       5.56585973
Si       3.44409249       4.47518585       2.14636010
Si       3.49448198       5.35341105       1.30663880
Si       9.34648702      12.70218736       2.73832223
Si       6.17572534       5.65087867       2.05202159
Si       2.17419470      -0.21088231       7.79766421
Si       8.83122747      11.59091296       5.58955071
Si       3.77431316       4.20584552       1.01537701
Si       2.70318005       0.81441802       7.76421270
Si      -0.57851478      -1.51446699       1.61447273
Si       6.30854760       4.60292261       2.27765703
Si       9.52734978      11.85725684       0.11372134
Si      10.21544970      10.92628275       0.46867769
16
Lattice="5.336248368030948 0.9618193653182521 1.328790978397221 5.89196863715364 12.606679574306677 -2.5509755964709986 2.4955322414477905 2.7515322300718874 11.508015902927786" Properties=species:S:1:pos:R:3 unique_starting_index=65 config_type=initial n_minim_iter=2 stress="1.0838850122206458e-05 -1.501990306890757e-05 -7.850260563615475e-06 -1.501990306890757e-05 8.720935260289976e-05 -6.649731070781519e-06 -7.850260563615475e-06 -6.649731070781519e-06 4.424139071844322e-05" pbc="T T T"
Si       9.94959553      11.81658965       3.06404230
Si       8.96963184      11.65874535       2.81863012
Si       8.00500946      12.95064577       7.94061932
Si       9.35562147      12.62762676       5.56582139
Si       3.44404539       4.47529471       2.14637947
Si       3.49443551       5.35355828       1.30661963
Si       9.34639269      12.70249784       2.73827041
Si       6.17569578       5.65100032       2.05200366
Si       2.17423184      -0.21093986       7.79767245
Si       8.83115309      11.59120262       5.58951529
Si       3.77427570       4.20595713       1.01536308
Si       2.70319418       0.81437849       7.76423830
Si      -0.57850276      -1.51451417       1.61448840
Si       6.30852234       4.60302476       2.27764068
Si       9.52727218      11.85756224       0.11369110
Si      10.21538388      10.92653603       0.46865116
16
Lattice="5.336244401329179 0.9618121661949212 1.3287913054018607 5.89194610362076 12.606652904583544 -2.5509523151777644 2.4955484033471897 2.7515203089326494 11.507940102935631" Properties=species:S:1:pos:R:3 unique_starting_index=65 config_type=initial n_minim_iter=3 stress="-2.3707483459461387e-05 -8.931194658573008e-06 3.5318176731788475e-05 -8.931194658573008e-06 6.147754021326667e-05 -3.246660271526249e-05 3.5318176731788475e-05 -3.246660271526249e-05 -0.00013418020730926423" pbc="T T T"
Si       9.94957253      11.81656302       3.06402849
Si       8.96961715      11.65871336       2.81862874
Si       8.00500939      12.95061326       7.94057789
Si       9.35560656      12.62759299       5.56579053
Si       3.44403338       4.47528277       2.14638308
Si       3.49442606       5.35354728       1.30661303
Si       9.34637396      12.70245702       2.73825570
Si       6.17569003       5.65098212       2.05199511
Si       2.17425456      -0.21094506       7.79762060
Si       8.83114474      11.59117590       5.58948418
Si       3.77426504       4.20595143       1.01536024
Si       2.70320814       0.81436435       7.76419625
Si      -0.57849897      -1.51451001       1.61448032
Si       6.30851475       4.60301842       2.27762949
Si       9.52725627      11.85753078       0.11370456
Si      10.21536864      10.92650055       0.46866358
16
Lattice="5.336249830254702 0.9617995901197047 1.328795788603845 5.8919455480256575 12.60647144667784 -2.5509225799527893 2.4955328625962943 2.751530751100703 11.508017935785949" Properties=species:S:1:pos:R:3 unique_starting_index=65 config_type=initial n_minim_iter=4 stress="-2.38845339300091e-05 -1.2210980999988421e-05 -9.735936652719079e-06 -1.2210980999988421e-05 6.527080864026992e-06 7.325702242788539e-06 -9.735936652719079e-06 7.325702242788539e-06 5.9083087779017595e-06" pbc="T T T"
Si       9.94955319      11.81642390       3.06406708
Si       8.96961409      11.65855780       2.81869745
Si       8.00501181      12.95047216       7.94067882
Si       9.35558997      12.62744085       5.56585296
Si       3.44400941       4.47523031       2.14644624
Si       3.49441579       5.35348462       1.30663426
Si       9.34636454      12.70227089       2.73829314
Si       6.17569557       5.65090644       2.05201326
Si       2.17427381      -0.21091239       7.79765908
Si       8.83114112      11.59105064       5.58954489
Si       3.77425245       4.20591241       1.01537662
Si       2.70320900       0.81436537       7.76426039
Si      -0.57850322      -1.51447882       1.61449244
Si       6.30851296       4.60298446       2.27763975
Si       9.52727130      11.85736157       0.11374527
Si      10.21538442      10.92633273       0.46870145
16
Lattice="5.3362964866867495 0.9618110083233935 1.3288079136247184 5.892018161954945 12.606485423806218 -2.5509323746846495 2.495586477689437 2.7515164637226315 11.508029242237646" Properties=species:S:1:pos:R:3 unique_starting_index=65 config_type=initial n_minim_iter=5 stress="5.340666896629352e-05 5.806870345358595e-06 1.2604435864731067e-05 5.806870345358595e-06 8.860814873356551e-06 4.07711112878233e-06 1.2604435864731067e-05 4.07711112878233e-06 3.340625198151263e-06" pbc="T T T"
Si       9.94966765      11.81644228       3.06407103
Si       8.96971699      11.65856560       2.81870109
Si       8.00513189      12.95047335       7.94068256
Si       9.35570790      12.62744984       5.56585606
Si       3.44404778       4.47523495       2.14645628
Si       3.49445875       5.35348947       1.30663465
Si       9.34647248      12.70228276       2.73829435
Si       6.17576161       5.65091900       2.05201630
Si       2.17431344      -0.21092049       7.79767216
Si       8.83125365      11.59106072       5.58955058
Si       3.77429117       4.20592446       1.01538090
Si       2.70325363       0.81435566       7.76427417
Si      -0.57850731      -1.51448229       1.61449476
Si       6.30857586       4.60299937       2.27764524
Si       9.52738048      11.85737773       0.11374790
Si      10.21549575      10.92635088       0.46870930
16
Lattice="5.336256353455997 0.961826411944544 1.32880199159356 5.892044689328384 12.606572999701001 -2.551122750787644 2.49557958689927 2.7513770976344234 11.508063030489014" Properties=species:S:1:pos:R:3 unique_starting_index=65 config_type=initial n_minim_iter=6 stress="-1.037744474601037e-05 1.7085097442823104e-05 -2.5396594061321087e-06 1.7085097442823104e-05 8.564447134595432e-06 -3.099123463888359e-05 -2.5396594061321087e-06 -3.099123463888359e-05 1.6588096976911752e-05" pbc="T T T"
Si       9.94965715      11.81649322       3.06391640
Si       8.96968495      11.65855456       2.81854697
Si       8.00517794      12.95042559       7.94054783
Si       9.35570533      12.62744440       5.56570255
Si       3.44401574       4.47524295       2.14645004
Si       3.49445568       5.35350083       1.30657243
Si       9.34643950      12.70231128       2.73813399
Si       6.17572939       5.65095995       2.05192446
Si       2.17431875      -0.21101948       7.79773234
Si       8.83125320      11.59106054       5.58942643
Si       3.77425978       4.20597690       1.01534363
Si       2.70325680       0.81424985       7.76431813
Si      -0.57850671      -1.51451225       1.61451877
Si       6.30852565       4.60303345       2.27757400
Si       9.52740039      11.85742510       0.11358471
Si      10.21549187      10.92640652       0.46857255
