8
Lattice="2.0240681788967176 -3.1051898882435776e-06 3.4853344265555533e-20 2.2446227900295767e-05 14.631213312030606 9.95773372201686e-16 -4.789501725108853e-19 8.449708903780455e-16 18.179923889654813" Properties=species:S:1:pos:R:3 unique_starting_index=54 config_type=initial n_minim_iter=1 energy=-1300.544921154433 free_energy=-1300.544921154433 pbc="T T T"
Si       0.42195840       1.57726746       2.39542289
Si       1.60213223      13.05394275       2.39542289
Si       0.59009175       8.89287385      11.48538484
Si       1.43399887       5.73833635      11.48538484
Si       0.58676164      13.04329197       0.64203333
Si       1.43732899       1.58791824       0.64203333
Si       0.42530125       5.72768556       9.73199528
Si       1.59878938       8.90352465       9.73199528
8
Lattice="2.023721572971111 -3.104658148637857e-06 5.543940108422834e-20 2.2447219116017797e-05 14.631859420086348 -7.842497344862551e-16 -2.960267545139771e-19 -1.3409181028144952e-15 18.1782525311135" Properties=species:S:1:pos:R:3 unique_starting_index=54 config_type=initial n_minim_iter=2 stress="-0.0007036234772156613 4.2944415042021943e-10 -4.503934741598138e-16 4.2944415042021943e-10 -0.00042369719068368695 1.4644217314582723e-17 -4.503934741598138e-16 1.4644217314582723e-17 7.160419851635288e-05" pbc="T T T"
Si       0.42187848       1.57735023       2.39518956
Si       1.60186554      13.05450609       2.39518956
Si       0.58999837       8.89327968      11.48431583
Si       1.43374565       5.73857664      11.48431583
Si       0.58670246      13.04387403       0.64198742
Si       1.43704156       1.58798228       0.64198742
Si       0.42518712       5.72794457       9.73111368
Si       1.59855690       8.90391174       9.73111368
8
Lattice="2.0245637834703296 -3.105950211599576e-06 5.48083996588149e-20 2.247749117351176e-05 14.651591774785576 -7.192274946981209e-16 -3.012812975441547e-19 -1.2625497936118774e-15 18.162679992147073" Properties=species:S:1:pos:R:3 unique_starting_index=54 config_type=initial n_minim_iter=3 stress="0.0006804402157999917 -3.613814037410843e-11 -3.88731068269558e-16 -3.613814037410843e-11 0.0006568841842072915 3.3383282662294185e-17 -3.88731068269558e-16 3.3383282662294185e-17 -0.0014879504767356" pbc="T T T"
Si       0.42178500       1.57991437       2.39301562
Si       1.60280126      13.07167430       2.39301562
Si       0.59051298       8.90571000      11.47435562
Si       1.43407328       5.74587867      11.47435562
Si       0.58835650      13.06168639       0.64155953
Si       1.43622976       1.58990227       0.64155953
Si       0.42395423       5.73589076       9.72289953
Si       1.60063203       8.91569791       9.72289953
8
Lattice="2.023814215478597 -3.1048002745704037e-06 5.77721836724028e-20 2.2513013238391313e-05 14.674746262517102 -9.992602349252232e-16 -2.755657882027246e-19 -1.6113569726162382e-15 18.18181927204398" Properties=species:S:1:pos:R:3 unique_starting_index=54 config_type=initial n_minim_iter=4 stress="-0.0004012638295744925 4.259464756398806e-09 -1.8472238241093525e-16 4.259464756398806e-09 0.0023751999474864462 7.576508985703473e-17 -1.8472238241093525e-16 7.576508985703473e-17 0.0012492939087747155" pbc="T T T"
Si       0.42073584       1.58342030       2.39568756
Si       1.60310089      13.09132286       2.39568756
Si       0.59118739       8.92079317      11.48659719
Si       1.43264934       5.75394999      11.48659719
Si       0.59186147      13.08308136       0.64208534
Si       1.43197526       1.59166179       0.64208534
Si       0.42007452       5.74570850       9.73299498
Si       1.60376221       8.92903466       9.73299498
8
Lattice="2.0241241095435387 -3.1052756932973606e-06 5.747105157070472e-20 2.246059345927137e-05 14.64057727102864 -9.75453640600143e-16 -2.781296283128852e-19 -1.5783822147799623e-15 18.177164791671757" Properties=species:S:1:pos:R:3 unique_starting_index=54 config_type=initial n_minim_iter=5 stress="0.0005916924302428683 -1.6966743358254926e-09 -1.284807690861793e-16 -1.6966743358254926e-09 -0.0005142574507364718 2.400093933841681e-16 -1.284807690861793e-16 2.400093933841681e-16 0.0010002656022283795" pbc="T T T"
Si       0.41667204       1.58282641       2.39503799
Si       1.60747453      13.05774776       2.39503799
Si       0.59540611       8.90311477      11.48362039
Si       1.42874046       5.73745940      11.48362039
Si       0.60551342      13.05605836       0.64195725
Si       1.41863315       1.58451580       0.64195725
Si       0.40657747       5.73577003       9.73053965
Si       1.61756910       8.90480413       9.73053965
8
Lattice="2.0336866275890118 -3.1199458682699887e-06 6.331081388365625e-20 2.283181604889124e-05 14.882552756580091 -1.2876609413800427e-15 -2.21686769359646e-19 -2.0151781960171254e-15 17.98513884367784" Properties=species:S:1:pos:R:3 unique_starting_index=54 config_type=initial n_minim_iter=6 stress="0.007419424244156458 -2.1140490999492264e-08 -5.803037850109533e-16 -2.1140490999492264e-08 -0.006360665466071083 1.1640748099288345e-16 -5.803037850109533e-16 1.1640748099288345e-16 -0.007450812529173379" pbc="T T T"
Si       0.15275933       1.69386538       2.36824505
Si       1.88095013      13.18868425       2.36824505
Si       0.86410060       9.13514067      11.36081447
Si       1.16960886       5.74740896      11.36081447
Si       0.89048537      13.35355940       0.63666698
Si       1.14322409       1.52899024       0.63666698
Si       0.12638750       5.91228419       9.62923640
Si       1.90732196       8.97026544       9.62923640
8
Lattice="2.034175832940577 -3.1206963743679526e-06 7.144240704174743e-20 2.301511321305637e-05 15.00203207044534 -1.8732908615906457e-15 -1.4937341549117507e-19 -2.7709630166865896e-15 17.972500480000384" Properties=species:S:1:pos:R:3 unique_starting_index=54 config_type=initial n_minim_iter=7 stress="0.0075660013438784155 -1.5510589669884676e-08 -3.301544133284781e-16 -1.5510589669884676e-08 -0.002544327508509987 -1.8167601837051447e-17 -3.301544133284781e-16 -1.8167601837051447e-17 -0.0011865161723902517" pbc="T T T"
Si       0.07371691       1.72226827       2.36649269
Si       1.96048194      13.27976068       2.36649269
Si       0.94338780       9.22328297      11.35274293
Si       1.09081105       5.77874598      11.35274293
Si       0.95909402      13.47331726       0.63630775
Si       1.07510483       1.52871169       0.63630775
Si       0.05802373       5.97230261       9.62255799
Si       1.97617512       9.02972634       9.62255799
8
Lattice="2.030963773641381 -3.115768648039219e-06 7.480601295708547e-20 2.3074130714161334e-05 15.040501681091953 -2.1087438982597004e-15 -1.2146960637300041e-19 -3.0637044127007226e-15 18.024042083865154" Properties=species:S:1:pos:R:3 unique_starting_index=54 config_type=initial n_minim_iter=8 stress="-0.008041995661771323 1.5002480067414477e-08 -1.8710397371215765e-16 1.5002480067414477e-08 0.001737130227722159 -3.0600057131423874e-17 -1.8710397371215765e-16 -3.0600057131423874e-17 -0.0015836902967298085" pbc="T T T"
Si       0.08482330       1.70610815       2.37369191
Si       1.94616355      13.33439041       2.37369191
Si       0.93067536       9.22635770      11.38571295
Si       1.10031148       5.81414087      11.38571295
Si       0.92392578      13.48546449       0.63771998
Si       1.10706107       1.55503408       0.63771998
Si       0.09158595       5.96521492       9.64974102
Si       1.93940090       9.07528364       9.64974102
8
Lattice="2.031276467256087 -3.1162483616479903e-06 7.605614778482115e-20 2.3231914606810624e-05 15.143350578501744 -2.1182334290227164e-15 -1.1173498458246677e-19 -3.0937035481214164e-15 18.060662770406683" Properties=species:S:1:pos:R:3 unique_starting_index=54 config_type=initial n_minim_iter=9 stress="-0.0004367096002977521 1.0812072556666843e-08 -1.4703333338841763e-15 1.0812072556666843e-08 0.0066109664104764656 2.3131645721657274e-17 -1.4703333338841763e-15 2.3131645721657274e-17 -0.003668924089170783" pbc="T T T"
Si       0.01436168       1.67811366       2.37882919
Si       2.01693802      13.46523380       2.37882919
Si       1.00129332       9.24978744      11.40916057
Si       1.03000638       5.89356002      11.40916057
Si       0.96799270      13.53128587       0.63870119
Si       1.06330700       1.61206160       0.63870119
Si       0.04767544       5.95961199       9.66903257
Si       1.98362426       9.18373547       9.66903257
8
Lattice="2.0286704666277022 -3.1122504099562517e-06 7.774134720734765e-20 2.3141325389264592e-05 15.084301451335552 -2.2566783637581824e-15 -9.967755675342974e-20 -3.2391589785544082e-15 18.13647013869614" Properties=species:S:1:pos:R:3 unique_starting_index=54 config_type=initial n_minim_iter=10 stress="-0.006573196760250613 2.0939098312559596e-08 -1.131736486541364e-16 2.0939098312559596e-08 0.007075618361602359 1.8653897900129417e-17 -1.131736486541364e-16 1.8653897900129417e-17 0.007662306620722419" pbc="T T T"
Si       0.00906691       1.64828508       2.38942659
Si       2.01962670      13.43601326       2.38942659
Si       1.00528495       9.19043428      11.45766166
Si       1.02340866       5.89386406      11.45766166
Si       0.99114270      13.45348730       0.64076949
Si       1.03755091       1.63081104       0.64076949
Si       0.02322224       5.91133806       9.70900456
Si       2.00547136       9.17296028       9.70900456
8
Lattice="2.031035486922976 -3.1158786657546167e-06 7.635757837194084e-20 2.296145651190998e-05 14.967056811191073 -2.131178460334347e-15 -1.100911321868881e-19 -3.064295613600172e-15 18.088992701238297" Properties=species:S:1:pos:R:3 unique_starting_index=54 config_type=initial n_minim_iter=11 stress="-0.0029309634782785404 8.306499321568616e-09 -1.5565744612595876e-16 8.306499321568616e-09 0.0024834947775098748 1.0196081674045899e-17 -1.5565744612595876e-16 1.0196081674045899e-17 0.0008372541477916675" pbc="T T T"
Si       0.00483212       1.62755263       2.38280384
Si       2.02622633      13.33950107       2.38280384
Si       1.01070210       9.11107949      11.42730019
Si       1.02035635       5.85597420      11.42730019
Si       1.01013476      13.34136562       0.63945983
Si       1.02092369       1.62568807       0.63945983
Si       0.00541244       5.85783876       9.68395618
Si       2.02564601       9.10921494       9.68395618
8
Lattice="2.031712098855242 -3.1169166784817783e-06 7.64024518664874e-20 2.288022514799264e-05 14.91410745068467 -2.122069655243759e-15 -1.093958610413892e-19 -3.0421742604965275e-15 18.081620482505073" Properties=species:S:1:pos:R:3 unique_starting_index=54 config_type=initial n_minim_iter=12 stress="9.220255890668384e-05 6.924956858976393e-11 -2.6437473368512337e-16 6.924956858976393e-11 0.00013734178167339956 -4.457959581181482e-18 -2.6437473368512337e-16 -4.457959581181482e-18 -0.00039496409140630894" pbc="T T T"
Si       0.00327573       1.61944516       2.38177590
Si       2.02845924      13.29465917       2.38177590
Si       1.01259672       9.07649734      11.42258614
Si       1.01913826       5.83760699      11.42258614
Si       1.01433078      13.29213006       0.63925604
Si       1.01740420       1.62197427       0.63925604
Si       0.00155462       5.83507789       9.68006628
Si       2.03018036       9.07902644       9.68006628
8
Lattice="2.031611486928509 -3.1167623263997727e-06 7.675511306095529e-20 2.2879216716931485e-05 14.913450121086484 -2.133073770887716e-15 -1.0629704164217725e-19 -3.0554763511602842e-15 18.08296377977161" Properties=species:S:1:pos:R:3 unique_starting_index=54 config_type=initial n_minim_iter=13 stress="-0.0003146258785408465 7.038387791279798e-10 -3.561370568730891e-16 7.038387791279798e-10 0.0001441601161257532 8.257516396915154e-18 -3.561370568730891e-16 8.257516396915154e-18 -0.00035077331478109553" pbc="T T T"
Si       0.00036461       1.62022472       2.38196347
Si       2.03126975      13.29322228       2.38196347
Si       1.01545754       9.07694823      11.42344536
Si       1.01617683       5.83649878      11.42344536
Si       1.01619704      13.29237472       0.63929290
Si       1.01543733       1.62107229       0.63929290
Si      -0.00036195       5.83565121       9.68077479
Si       2.03199632       9.07779579       9.68077479
8
Lattice="2.031554277572701 -3.116674559636271e-06 7.711118437590799e-20 2.2872973902811407e-05 14.909380842922504 -2.146238730134665e-15 -1.0323263747866916e-19 -3.070432667936307e-15 18.085849585899496" Properties=species:S:1:pos:R:3 unique_starting_index=54 config_type=initial n_minim_iter=14 stress="-6.554079364636952e-05 1.3025940791117013e-10 -3.146913566370077e-16 1.3025940791117013e-10 1.936670408743146e-05 4.661343553470409e-18 -3.146913566370077e-16 4.661343553470409e-18 -3.4862475351741374e-05" pbc="T T T"
Si       0.00000803       1.62010590       2.38236648
Si       2.03156912      13.28927183       2.38236648
Si       1.01578551       9.07479476      11.42529127
Si       1.01579164       5.83458297      11.42529127
Si       1.01568875      13.28913235       0.63937204
Si       1.01588840       1.62024538       0.63937204
Si       0.00011772       5.83444349       9.68229684
Si       2.03145943       9.07493424       9.68229684
