8
Lattice="4.78854 -2.9321350917945336e-16 -5.078606953643764e-16 3.7714896382281434e-16 6.159310000000002 -1.937463994080831e-30 3.7714896382281404e-16 -3.0796550000000016 5.334118929783531" Properties=species:S:1:pos:R:3 unique_starting_index=35 config_type=initial n_minim_iter=1 pbc="T T T"
Si       0.68405778       1.45172381       1.68484707
Si       0.68405778       3.81291346       3.23446675
Si       0.68405778       3.97432864       0.41480669
Si       4.10448222       0.73325846       2.09965323
Si       4.10448222       0.89467364       4.91931329
Si       4.10448222      -1.62793119       3.64927291
Si       1.16128703       3.07965530       1.77804017
Si       3.62725297       0.00000030       3.55607981
8
Lattice="4.816339657308116 -2.9515957917575496e-16 -5.112313874730563e-16 3.7865067636533026e-16 6.188956816216627 1.1093541979914484e-17 3.786506763653299e-16 -3.094478408108314 5.359793825768456" Properties=species:S:1:pos:R:3 unique_starting_index=35 config_type=initial n_minim_iter=2 pbc="T T T"
Si       0.68833797       1.45866458       1.69277323
Si       0.68833797       3.83113073       3.25016768
Si       0.68833797       3.99364082       0.41685450
Si       4.12800169       0.73665232       2.10962720
Si       4.12800169       0.89916241       4.94294038
Si       4.12800169      -1.63581383       3.66702165
Si       1.16841529       3.09447871       1.78659847
Si       3.64792436       0.00000030       3.57319641
8
Lattice="5.302376575265327 -3.2888730584666296e-16 -5.696495236908655e-16 4.0310539335965925e-16 6.671653303373193 -1.4571233696271239e-15 4.0310539335965885e-16 -3.3358266516865984 5.7778212459635565" Properties=species:S:1:pos:R:3 unique_starting_index=35 config_type=initial n_minim_iter=3 pbc="T T T"
Si       0.76274879       1.57133019       1.82169059
Si       0.76274879       4.12779188       3.50616523
Si       0.76274879       4.30835886       0.44996714
Si       4.53962779       0.79196523       2.27165716
Si       4.53962779       0.97253221       5.32785524
Si       4.53962779      -1.76449646       3.95613180
Si       1.29293052       3.33582698       1.92594098
Si       4.00944605       0.00000033       3.85188140
8
Lattice="6.306390029928728 -3.96170596780639e-16 -6.861876020889504e-16 4.483185604733926e-16 7.530393132197004 -8.901427569087156e-16 4.483185604733921e-16 -3.765196566098503 6.521511752966476" Properties=species:S:1:pos:R:3 unique_starting_index=35 config_type=initial n_minim_iter=4 pbc="T T T"
Si       0.92582478       1.77296463       2.04760740
Si       0.92582478       4.65199427       3.96227693
Si       0.92582478       4.87063190       0.51162935
Si       5.38056525       0.88679771       2.55923611
Si       5.38056525       1.10543534       6.00988368
Si       5.38056525      -1.99223194       4.47390564
Si       1.56164382       3.76519694       2.17383789
Si       4.74474621       0.00000037       4.34767514
8
Lattice="6.1473255310861346 -3.753795771684847e-16 -6.501764997795369e-16 4.608661719474636e-16 7.50943560486592 1.5096447988671941e-15 4.60866171947463e-16 -3.754717802432959 6.50336200189724" Properties=species:S:1:pos:R:3 unique_starting_index=35 config_type=initial n_minim_iter=5 pbc="T T T"
Si       0.90432223       1.76388944       2.03924576
Si       0.90432223       4.63881171       3.95616734
Si       0.90432223       4.86145336       0.50795083
Si       5.24300330       0.88409391       2.54719594
Si       5.24300330       1.10673556       5.99541246
Si       5.24300330      -1.99082836       4.46411753
Si       1.52482958       3.75471817       2.16778797
Si       4.62249595       0.00000037       4.33557531
8
Lattice="5.2287438676710565 -3.0693359935104376e-16 -5.316245886259958e-16 4.581133335169958e-16 7.261501410189124 3.1649359048444485e-15 4.581133335169953e-16 -3.6307507050945595 6.288644690840291" Properties=species:S:1:pos:R:3 unique_starting_index=35 config_type=initial n_minim_iter=6 pbc="T T T"
Si       0.76319222       1.69348801       1.96802583
Si       0.76319222       4.48836706       3.83802937
Si       0.76319222       4.71039811       0.48259135
Si       4.46555165       0.85761635       2.45061656
Si       4.46555165       1.07964741       5.80605458
Si       4.46555165      -1.93726269       4.32062010
Si       1.30022134       3.63075106       2.09621552
Si       3.92852252       0.00000036       4.19243041
8
Lattice="5.452317458857785 -3.279294432154342e-16 -5.679904569469022e-16 4.45362379006176e-16 7.193250359216838 6.7012953140581745e-15 4.453623790061755e-16 -3.596625179608414 6.229537546863295" Properties=species:S:1:pos:R:3 unique_starting_index=35 config_type=initial n_minim_iter=7 pbc="T T T"
Si       0.82135817       1.70180632       1.93969199
Si       0.82135817       4.42554456       3.78588528
Si       0.82135817       4.66252572       0.50396212
Si       4.63095929       0.82891938       2.44365350
Si       4.63095929       1.06590054       5.72557665
Si       4.63095929      -1.89481886       4.28984678
Si       1.35103277       3.59662553       2.07651313
Si       4.10128469       0.00000035       4.15302564
8
Lattice="5.384764746498862 -3.258539998500238e-16 -5.643956835897798e-16 4.535583682189995e-16 7.380483299053544 5.260749087711323e-15 4.53558368218999e-16 -3.6902416495267674 6.391686029187127" Properties=species:S:1:pos:R:3 unique_starting_index=35 config_type=initial n_minim_iter=8 pbc="T T T"
Si       0.81785964       1.74534750       1.98466248
Si       0.81785964       4.53633603       3.88784077
Si       0.81785964       4.78904251       0.51918466
Si       4.56690511       0.84609438       2.50384651
Si       4.56690511       1.09880086       5.87250263
Si       4.56690511      -1.94489415       4.40702480
Si       1.34341529       3.69024201       2.13056264
Si       4.04134945       0.00000036       4.26112465
8
Lattice="5.326072962220483 -3.2755817863860014e-16 -5.673474078367752e-16 4.411576240930659e-16 7.288403008317155 5.287078339889344e-15 4.411576240930656e-16 -3.644201504158573 6.311942158221558" Properties=species:S:1:pos:R:3 unique_starting_index=35 config_type=initial n_minim_iter=9 pbc="T T T"
Si       0.81203547       1.72760238       1.95855163
Si       0.81203547       4.47655578       3.83652003
Si       0.81203547       4.72844742       0.51687236
Si       4.51403749       0.83235427       2.47542337
Si       4.51403749       1.08424592       5.79507104
Si       4.51403749      -1.91659912       4.35339177
Si       1.32821686       3.64420186       2.10398134
Si       3.99785610       0.00000036       4.20796206
8
Lattice="5.316621463837871 -3.325876770051145e-16 -5.760587545441624e-16 4.3645984527203496e-16 7.329797911152124 5.6233166874563194e-15 4.3645984527203466e-16 -3.664898955576057 6.347791195663826" Properties=species:S:1:pos:R:3 unique_starting_index=35 config_type=initial n_minim_iter=10 pbc="T T T"
Si       0.81225291       1.73758139       1.96843087
Si       0.81225291       4.50081940       3.85878739
Si       0.81225291       4.75629716       0.52057481
Si       4.50436855       0.83592044       2.48900506
Si       4.50436855       1.09139820       5.82721763
Si       4.50436855      -1.92731757       4.37936157
Si       1.32743782       3.66489931       2.11593102
Si       3.98918365       0.00000036       4.23186142
8
Lattice="5.295605970274475 -3.377473786657799e-16 -5.849956199723325e-16 4.2934599043005674e-16 7.348359440415557 4.9827699949848234e-15 4.2934599043005644e-16 -3.6741797202077744 6.363865951539049" Properties=species:S:1:pos:R:3 unique_starting_index=35 config_type=initial n_minim_iter=11 pbc="T T T"
Si       0.81126451       1.74307508       1.97195980
Si       0.81126451       4.51040946       3.86834000
Si       0.81126451       4.76905570       0.52356803
Si       4.48434146       0.83622974       2.49552720
Si       4.48434146       1.09487598       5.84029917
Si       4.48434146      -1.93110464       4.39190741
Si       1.32347781       3.67418008       2.12128928
Si       3.97212816       0.00000036       4.24257793
8
Lattice="5.286756989963851 -3.441772956918828e-16 -5.96132562949995e-16 4.201318890665354e-16 7.344014173577742 5.279667824068353e-15 4.201318890665351e-16 -3.672007086788867 6.3601028400712805" Properties=species:S:1:pos:R:3 unique_starting_index=35 config_type=initial n_minim_iter=12 pbc="T T T"
Si       0.81084397       1.74284412       1.97027881
Si       0.81084397       4.50689653       3.86561740
Si       0.81084397       4.76628169       0.52420850
Si       4.47591302       0.83488945       2.49448669
Si       4.47591302       1.09427461       5.83589559
Si       4.47591302      -1.92916297       4.38982528
Si       1.32146783       3.67200745       2.12003491
Si       3.96528916       0.00000036       4.24006919
8
Lattice="5.280387120921658 -3.508183923677652e-16 -6.076352798106004e-16 4.1137634476442124e-16 7.348043591997976 5.5662890473928756e-15 4.11376344764421e-16 -3.674021795998983 6.363592418785682" Properties=species:S:1:pos:R:3 unique_starting_index=35 config_type=initial n_minim_iter=13 pbc="T T T"
Si       0.81066805       1.74429605       1.97087212
Si       0.81066805       4.50869909       3.86755292
Si       0.81066805       4.76907132       0.52516926
Si       4.46971907       0.83467730       2.49604075
Si       4.46971907       1.09504953       5.83842441
Si       4.46971907      -1.92972575       4.39272155
Si       1.32021285       3.67402216       2.12119810
Si       3.96017427       0.00000036       4.24239557
8
Lattice="5.2667131198468935 -3.571737823247428e-16 -6.186431381179986e-16 4.026257245679648e-16 7.354392566162733 5.610244651261968e-15 4.026257245679646e-16 -3.677196283081362 6.369090791700333" Properties=species:S:1:pos:R:3 unique_starting_index=35 config_type=initial n_minim_iter=14 pbc="T T T"
Si       0.81032254       1.74696818       1.97152882
Si       0.81032254       4.51110623       3.87040881
Si       0.81032254       4.77351552       0.52715504
Si       4.45639058       0.83390995       2.49868323
Si       4.45639058       1.09631924       5.84193700
Si       4.45639058      -1.93022810       4.39756323
Si       1.31744967       3.67719664       2.12303089
Si       3.94926345       0.00000036       4.24606115
8
Lattice="5.157056092083822 -3.594877008562941e-16 -6.226509625792207e-16 3.961097239899534e-16 7.417806660165481 5.001189290822494e-15 3.9610972398995334e-16 -3.7089033300827365 6.424009008064687" Properties=species:S:1:pos:R:3 unique_starting_index=35 config_type=initial n_minim_iter=15 pbc="T T T"
Si       0.80875222       1.77253758       1.97925398
Si       0.80875222       4.53671876       3.89932071
Si       0.80875222       4.81745474       0.54543622
Si       4.34830387       0.82781543       2.52468956
Si       4.34830387       1.10855141       5.87857406
Si       4.34830387      -1.93636575       4.44475630
Si       1.29543590       3.70890369       2.14133697
Si       3.86162020       0.00000036       4.28267330
8
Lattice="5.137860901152308 -3.6883025889743024e-16 -6.3883274777913e-16 3.800114202890162e-16 7.377229942834252 5.019384082959085e-15 3.800114202890162e-16 -3.6886149714171217 6.388868540053665" Properties=species:S:1:pos:R:3 unique_starting_index=35 config_type=initial n_minim_iter=16 pbc="T T T"
Si       0.81565797       1.77219494       1.96384206
Si       0.81565797       4.50325461       3.87218292
Si       0.81565797       4.79039644       0.55284544
Si       4.32220293       0.81463964       2.51668688
Si       4.32220293       1.10178147       5.83602436
Si       4.32220293      -1.91642003       4.42502773
Si       1.29054821       3.68861533       2.12962348
Si       3.84731270       0.00000036       4.25924632
8
Lattice="5.145097446606406 -3.808030709034137e-16 -6.595702664829643e-16 3.697340907277911e-16 7.443647325835514 4.814506518965767e-15 3.6973409072779104e-16 -3.721823662917753 6.44638768098564" Properties=species:S:1:pos:R:3 unique_starting_index=35 config_type=initial n_minim_iter=17 pbc="T T T"
Si       0.81850072       1.78803683       1.98035072
Si       0.81850072       4.54283928       3.90772827
Si       0.81850072       4.83459597       0.55831060
Si       4.32659673       0.82101561       2.53866068
Si       4.32659673       1.11277231       5.88807835
Si       4.32659673      -1.93378683       4.46603823
Si       1.29364711       3.72182403       2.14879653
Si       3.85145034       0.00000036       4.29759242
8
Lattice="5.126353028060348 -3.9259250293090884e-16 -6.79990161746966e-16 3.5765317473687616e-16 7.503157448286351 4.740900167521052e-15 3.576531747368761e-16 -3.751578724143171 6.497924958810389" Properties=species:S:1:pos:R:3 unique_starting_index=35 config_type=initial n_minim_iter=18 pbc="T T T"
Si       0.81813976       1.80237285       1.99448295
Si       0.81813976       4.57766520       3.93978408
Si       0.81813976       4.87469922       0.56365984
Si       4.30821327       0.82608647       2.55814216
Si       4.30821327       1.12312050       5.93426639
Si       4.30821327      -1.94920587       4.50344329
Si       1.29078539       3.75157909       2.16597563
Si       3.83556763       0.00000037       4.33195061
8
Lattice="5.1164404935621635 -4.038803091861692e-16 -6.995412156870713e-16 3.397307280168148e-16 7.465111825557383 3.180343281057693e-15 3.3973072801681475e-16 -3.7325559127786883 6.464976483024309" Properties=species:S:1:pos:R:3 unique_starting_index=35 config_type=initial n_minim_iter=19 pbc="T T T"
Si       0.81739479       1.79467533       1.98419416
Si       0.81739479       4.55358079       3.91864625
Si       0.81739479       4.84941272       0.56213798
Si       4.29904570       0.82102488       2.54633150
Si       4.29904570       1.11685680       5.90283977
Si       4.29904570      -1.93788059       4.48078360
Si       1.28780379       3.73255628       2.15499280
Si       3.82863670       0.00000037       4.30998496
8
Lattice="5.112307292667537 -4.1505933670120857e-16 -7.189038593223305e-16 3.248226384705387e-16 7.461268057639379 2.0199330906843774e-15 3.248226384705387e-16 -3.730634028819687 6.461647682361072" Properties=species:S:1:pos:R:3 unique_starting_index=35 config_type=initial n_minim_iter=20 pbc="T T T"
Si       0.81752389       1.79435332       1.98282176
Si       0.81752389       4.55063139       3.91628252
Si       0.81752389       4.84691848       0.56254531
Si       4.29478340       0.81999736       2.54536644
Si       4.29478340       1.11628445       5.89910364
Si       4.29478340      -1.93628071       4.47882719
Si       1.28684010       3.73063439       2.15388320
Si       3.82546719       0.00000037       4.30776576
8
Lattice="5.110915303098509 -4.261106275997003e-16 -7.380452566477423e-16 3.1084360991856104e-16 7.465315938100941 1.255730240665225e-15 3.10843609918561e-16 -3.7326579690504684 6.46515324967227" Properties=species:S:1:pos:R:3 unique_starting_index=35 config_type=initial n_minim_iter=21 pbc="T T T"
Si       0.81770247       1.79546877       1.98368622
Si       0.81770247       4.55284624       3.91838985
Si       0.81770247       4.84965999       0.56307909
Si       4.29321283       0.82018827       2.54676468
Si       4.29321283       1.11700203       5.90207543
Si       4.29321283      -1.93718920       4.48146830
Si       1.28663827       3.73265834       2.15505172
Si       3.82427704       0.00000037       4.31010280
8
Lattice="5.109250447615648 -4.366958556168849e-16 -7.563794093832065e-16 2.9721170057247763e-16 7.466220214851659 4.0265195635111346e-15 2.972117005724776e-16 -3.7331101074258246 6.465936376310436" Properties=species:S:1:pos:R:3 unique_starting_index=35 config_type=initial n_minim_iter=22 pbc="T T T"
Si       0.81783394       1.79590893       1.98373549
Si       0.81783394       4.55312097       3.91876715
Si       0.81783394       4.85030152       0.56343565
Si       4.29141651       0.82001086       2.54717050
Si       4.29141651       1.11719141       5.90250200
Si       4.29141651      -1.93720118       4.48220216
Si       1.28630908       3.73311047       2.15531276
Si       3.82294136       0.00000037       4.31062489
8
Lattice="5.099169739131659 -4.467688393787481e-16 -7.738263290425697e-16 2.8430869917254424e-16 7.473203941781879 4.642503646576027e-15 2.8430869917254414e-16 -3.7366019708909355 6.4719844612451" Properties=species:S:1:pos:R:3 unique_starting_index=35 config_type=initial n_minim_iter=23 pbc="T T T"
Si       0.81870739       1.79893681       1.98439057
Si       0.81870739       4.55566621       3.92186547
Si       0.81870739       4.85520399       0.56573033
Si       4.28046235       0.81906424       2.55012027
Si       4.28046235       1.11860202       5.90625541
Si       4.28046235      -1.93766516       4.48759516
Si       1.28435695       3.73660234       2.15732879
Si       3.81481279       0.00000037       4.31465694
8
Lattice="4.983679114034215 -4.559895499986927e-16 -7.897970683182041e-16 2.740139503307578e-16 7.560045842861041 3.29637204673814e-15 2.740139503307577e-16 -3.780022921430518 6.5471917536925925" Properties=species:S:1:pos:R:3 unique_starting_index=35 config_type=initial n_minim_iter=24 pbc="T T T"
Si       0.83214560       1.83681539       1.99189904
Si       0.83214560       4.58665040       3.96051473
Si       0.83214560       4.91660409       0.59477992
Si       4.15153351       0.80662747       2.58667831
Si       4.15153351       1.13658117       5.95241313
Si       4.15153351      -1.94320753       4.55529400
Si       1.26269328       3.78002329       2.18239790
Si       3.72098583       0.00000037       4.36479515
8
Lattice="4.818198550358318 -4.577251848303879e-16 -7.928032760300863e-16 2.518718231369685e-16 7.411981717184069 3.58632958482137e-15 2.518718231369684e-16 -3.705990858592032 6.418964459467202" Properties=species:S:1:pos:R:3 unique_starting_index=35 config_type=initial n_minim_iter=25 pbc="T T T"
Si       0.80265439       1.79425375       1.95564737
Si       0.80265439       4.50250428       3.88727271
Si       0.80265439       4.82121563       0.57604628
Si       4.01554416       0.79651343       2.53169301
Si       4.01554416       1.11522477       5.84291945
Si       4.01554416      -1.91173711       4.46331835
Si       1.22228437       3.70599122       2.13965545
Si       3.59591419       0.00000036       4.27931027
8
Lattice="4.9325286810953575 -4.809542957003919e-16 -8.330372762715835e-16 2.3935116425793504e-16 7.557775276700027 4.1547743192102906e-15 2.39351164257935e-16 -3.7788876383500103 6.545225385716178" Properties=species:S:1:pos:R:3 unique_starting_index=35 config_type=initial n_minim_iter=26 pbc="T T T"
Si       0.82364612       1.82906430       1.99313141
Si       0.82364612       4.59045792       3.96464482
Si       0.82364612       4.91714181       0.58745109
Si       4.10888256       0.81157028       2.58058185
Si       4.10888256       1.13825417       5.95777559
Si       4.10888256      -1.94982334       4.55209527
Si       1.25132096       3.77888801       2.18174244
Si       3.68120772       0.00000037       4.36348423
8
Lattice="4.926763958650096 -4.906717737421153e-16 -8.49868441961284e-16 2.2092128061366154e-16 7.4929349837608985 2.337505991077398e-15 2.2092128061366157e-16 -3.746467491880448 6.489072044842074" Properties=species:S:1:pos:R:3 unique_starting_index=35 config_type=initial n_minim_iter=27 pbc="T T T"
Si       0.82289604       1.81454646       1.97649968
Si       0.82289604       4.55089320       3.92938015
Si       0.82289604       4.87396393       0.58319413
Si       4.10386792       0.80442570       2.55969317
Si       4.10386792       1.12749643       5.90587919
Si       4.10386792      -1.93192103       4.51257364
Si       1.24891609       3.74646786       2.16302465
Si       3.67784787       0.00000037       4.32604867
8
Lattice="4.935232343304093 -5.029728943145432e-16 -8.711746077827612e-16 2.0739318280637203e-16 7.515072918094608 1.6082327774706285e-16 2.0739318280637203e-16 -3.757536459047305 6.5082440583623855" Properties=species:S:1:pos:R:3 unique_starting_index=35 config_type=initial n_minim_iter=28 pbc="T T T"
Si       0.82432103       1.81915773       1.98237247
Si       0.82432103       4.56474250       3.94162229
Si       0.82432103       4.88871024       0.58425122
Si       4.11091131       0.80720605       2.56662305
Si       4.11091131       1.13117378       5.92399412
Si       4.11091131      -1.93837872       4.52587287
Si       1.25120698       3.75753683       2.16941533
Si       3.68402536       0.00000037       4.33883001
8
Lattice="4.945169346242788 -5.157291675220584e-16 -8.932691210934068e-16 1.9469441389354314e-16 7.552014732260069 7.377505735001094e-16 1.946944138935431e-16 -3.7760073661300355 6.540236607891556" Properties=species:S:1:pos:R:3 unique_starting_index=35 config_type=initial n_minim_iter=29 pbc="T T T"
Si       0.82588949       1.82621508       1.99231014
Si       0.82588949       4.58829102       3.96253417
Si       0.82588949       4.91351711       0.58539423
Si       4.11927986       0.81228365       2.57770373
Si       4.11927986       1.13750974       5.95484367
Si       4.11927986      -1.94979228       4.54792775
Si       1.25407288       3.77600774       2.18007951
Si       3.69109646       0.00000037       4.36015838
8
Lattice="4.941066010203606 -5.243015690334143e-16 -9.081169560539547e-16 1.8080822446656202e-16 7.522583579546511 2.1593301920334182e-15 1.8080822446656207e-16 -3.7612917897732556 6.514748481978951" Properties=species:S:1:pos:R:3 unique_starting_index=35 config_type=initial n_minim_iter=30 pbc="T T T"
Si       0.82529046       1.81962835       1.98475392
Si       0.82529046       4.57032493       3.94652842
Si       0.82529046       4.89392320       0.58346806
Si       4.11577555       0.80903314       2.56822134
Si       4.11577555       1.13263141       5.93128170
Si       4.11577555      -1.94166344       4.52999584
Si       1.25262054       3.76129216       2.17158347
Si       3.68844547       0.00000037       4.34316630
8
Lattice="4.942093151915226 -5.338770899409382e-16 -9.247022447747238e-16 1.6910414206240746e-16 7.528767903559422 2.9724188673323368e-15 1.6910414206240756e-16 -3.7643839517797106 6.520104263679364" Properties=species:S:1:pos:R:3 unique_starting_index=35 config_type=initial n_minim_iter=31 pbc="T T T"
Si       0.82543616       1.82073360       1.98643236
Si       0.82543616       4.57431804       3.95008781
Si       0.82543616       4.89810132       0.58358602
Si       4.11665699       0.80993408       2.57001774
Si       4.11665699       1.13371737       5.93651953
Si       4.11665699      -1.94365035       4.53367319
Si       1.25295244       3.76438432       2.17336873
Si       3.68914071       0.00000037       4.34673682
8
Lattice="4.943262690557338 -5.431352207416407e-16 -9.40737797704659e-16 1.5811665074435392e-16 7.538080772137778 2.5271541357888365e-15 1.58116650744354e-16 -3.7690403860688892 6.528169444450326" Properties=species:S:1:pos:R:3 unique_starting_index=35 config_type=initial n_minim_iter=32 pbc="T T T"
Si       0.82557758       1.82212382       1.98903500
Si       0.82557758       4.58053331       3.95564771
Si       0.82557758       4.90446513       0.58348866
Si       4.11768511       0.81149293       2.57252302
Si       4.11768511       1.13542475       5.94468207
Si       4.11768511      -1.94691656       4.53913573
Si       1.25336223       3.76904076       2.17605712
Si       3.68990046       0.00000037       4.35211361
8
Lattice="4.94240855621031 -5.508197379224391e-16 -9.540477718934397e-16 1.4740420709174032e-16 7.529738073000551 6.968875477462958e-17 1.4740420709174032e-16 -3.7648690365002784 6.520944455061366" Properties=species:S:1:pos:R:3 unique_starting_index=35 config_type=initial n_minim_iter=33 pbc="T T T"
Si       0.82546575       1.82019384       1.98691431
Si       0.82546575       4.57549038       3.95115448
Si       0.82546575       4.89892400       0.58287760
Si       4.11694281       0.81062134       2.56979126
Si       4.11694281       1.13405496       5.93806814
Si       4.11694281      -1.94467519       4.53403143
Si       1.25301776       3.76486941       2.17364879
Si       3.68939079       0.00000037       4.34729695
