22
Lattice="4.65750976874762 0.5436594638781077 2.541547931744485 2.719218666507383 6.666884202750986 2.1774538546783098 8.633834800207396 0.7853366598221591 32.906263072431464" Properties=species:S:1:pos:R:3 unique_starting_index=40 config_type=initial n_minim_iter=1 energy=-4076.484985103018 free_energy=-4076.484985103018 pbc="T T T"
Si      12.83323275       4.42530565      32.95005988
Si       4.29092116       3.47997171      10.49426226
Si       8.25461292       1.23468298      17.68027393
Si       8.51695151       3.11776471      29.94715952
Si      10.52884316       3.92612157      31.68358027
Si       8.91948608       6.74991993      18.27213920
Si       4.65032133       2.38821855      10.07407046
Si       8.47727958       6.50898906      19.13365944
Si       3.72932751       2.60672388       1.12680991
Si      12.41089302       4.30926979      33.74922600
Si       8.74373750       1.85803187      24.75792100
Si       7.36684352       4.76402144      24.07417297
Si       1.49595029       2.88920689      -0.43754807
Si       5.54665943       0.80337622      17.13837741
Si      10.50186303       3.05175788      31.92063948
Si      11.12761223       6.93242822      19.78274616
Si       6.89831910       3.91921042      11.21788923
Si       8.70668510       7.69668037      18.45920838
Si       4.88863498       3.38933438       9.41754849
Si       7.93790906       0.62940079      18.38995353
Si      12.80572515       3.29345302      33.24265406
Si       6.97471932       2.84639423      11.30907834
22
Lattice="4.65743834751286 0.5436040137977586 2.541478525053832 2.7190310963968747 6.666720580319637 2.1775512541476125 8.633368111265025 0.7858827313139005 32.90584310412875" Properties=species:S:1:pos:R:3 unique_starting_index=40 config_type=initial n_minim_iter=2 stress="-0.0016270758619613419 -0.00015451673636115163 -0.0008406462879849075 -0.00015451673636115163 -0.00015574396040752243 -7.735683115336432e-05 -0.0008406462879849075 -7.735683115336432e-05 -0.0006051018003678576" pbc="T T T"
Si      12.83265337       4.42570300      32.94973710
Si       4.29071658       3.47996596      10.49418235
Si       8.25430404       1.23485411      17.68008089
Si       8.51649467       3.11819359      29.94677393
Si      10.52833244       3.92649812      31.68325267
Si       8.91908248       6.74999460      18.27197289
Si       4.65009837       2.38832462      10.07398833
Si       8.47685254       6.50910637      19.13353977
Si       3.72926800       2.60660156       1.12677708
Si      12.41036004       4.30970248      33.74878409
Si       8.74335560       1.85836951      24.75759603
Si       7.36640562       4.76425134      24.07393753
Si       1.49586475       2.88906800      -0.43744615
Si       5.54637148       0.80361712      17.13816984
Si      10.50134814       3.05222369      31.92017752
Si      11.12715732       6.93250522      19.78254084
Si       6.89806966       3.91924507      11.21780936
Si       8.70624319       7.69675094      18.45905631
Si       4.88842900       3.38933774       9.41747424
Si       7.93762025       0.62967716      18.38964498
Si      12.80508011       3.29383801      33.24233352
Si       6.97446894       2.84644848      11.30892358
22
Lattice="4.657540243467596 0.543589837919405 2.5415206838776094 2.719038201478036 6.666660022239465 2.1776591404955754 8.633720516147932 0.7862180131663556 32.90601319771877" Properties=species:S:1:pos:R:3 unique_starting_index=40 config_type=initial n_minim_iter=3 stress="3.982599562965686e-05 3.247403729708673e-05 4.401141088433465e-05 3.247403729708673e-05 -0.00013551924224056567 5.541585065404843e-05 4.401141088433465e-05 5.541585065404843e-05 -0.00011607501813702938" pbc="T T T"
Si      12.83305372       4.42597964      32.95001095
Si       4.29084339       3.47999009      10.49428601
Si       8.25454819       1.23498183      17.68023326
Si       8.51681922       3.11847071      29.94693747
Si      10.52869813       3.92675698      31.68348577
Si       8.91931308       6.75008710      18.27215678
Si       4.65021569       2.38840566      10.07409076
Si       8.47707034       6.50922016      19.13375015
Si       3.72934228       2.60655422       1.12681743
Si      12.41078344       4.30999733      33.74899883
Si       8.74365966       1.85859219      24.75774724
Si       7.36664748       4.76442044      24.07411541
Si       1.49585643       2.88900533      -0.43737604
Si       5.54655672       0.80377274      17.13827731
Si      10.50171227       3.05252619      31.92034152
Si      11.12743082       6.93260585      19.78274405
Si       6.89824276       3.91929917      11.21795118
Si       8.70645361       7.69684342      18.45924771
Si       4.88855564       3.38936738       9.41757848
Si       7.93787470       0.62985736      18.38973936
Si      12.80544624       3.29410587      33.24260940
Si       6.97464168       2.84651018      11.30902664
22
Lattice="4.657503137345427 0.5434986841414094 2.541579003600133 2.718892809489161 6.666882891730653 2.177649058711455 8.633326388284457 0.7856985351579259 32.90744744299225" Properties=species:S:1:pos:R:3 unique_starting_index=40 config_type=initial n_minim_iter=4 stress="9.504454086395868e-06 -4.526307259853341e-05 -7.983581966180529e-05 -4.526307259853341e-05 0.00018935218777265935 9.273248989124226e-06 -7.983581966180529e-05 9.273248989124226e-06 0.0002563200388072058" pbc="T T T"
Si      12.83261604       4.42554590      32.95135709
Si       4.29068231       3.47987930      10.49468755
Si       8.25430783       1.23468115      17.68097758
Si       8.51641014       3.11809563      29.94820815
Si      10.52825775       3.92637113      31.68482187
Si       8.91898410       6.75001397      18.27280855
Si       4.65003637       2.38832866      10.07450058
Si       8.47672249       6.50913966      19.13447953
Si       3.72928321       2.60659165       1.12680561
Si      12.41033573       4.30957689      33.75037922
Si       8.74335108       1.85822190      24.75877507
Si       7.36628450       4.76416069      24.07509064
Si       1.49580574       2.88907318      -0.43741289
Si       5.54633085       0.80349932      17.13901599
Si      10.50129543       3.05210042      31.92164085
Si      11.12708365       6.93248801      19.78343344
Si       6.89805470       3.91923284      11.21837509
Si       8.70610572       7.69681861      18.45990247
Si       4.88839833       3.38929523       9.41792224
Si       7.93764889       0.62953450      18.39049112
Si      12.80497871       3.29361534      33.24398035
Si       6.97445596       2.84638326      11.30942215
22
Lattice="4.65756817888061 0.5431112282751963 2.5415647503197114 2.7186886528309575 6.666661233013929 2.177111619070284 8.634553115377123 0.7828149872303086 32.905732907977146" Properties=species:S:1:pos:R:3 unique_starting_index=40 config_type=initial n_minim_iter=5 stress="-4.163912201874105e-05 -4.4470333778043974e-05 7.237482103191374e-05 -4.4470333778043974e-05 -2.7098951731633834e-05 -9.479328987266407e-05 7.237482103191374e-05 -9.479328987266407e-05 -1.269910554113023e-05" pbc="T T T"
Si      12.83387360       4.42246396      32.94949674
Si       4.29109644       3.47847684      10.49396437
Si       8.25482203       1.23307054      17.68029378
Si       8.51733653       3.11547936      29.94660737
Si      10.52924144       3.92364556      31.68319117
Si       8.91937291       6.74836900      18.27143041
Si       4.65015822       2.38753162      10.07403594
Si       8.47707533       6.50748603      19.13315349
Si       3.72915093       2.60642559       1.12676571
Si      12.41154701       4.30660520      33.74847116
Si       8.74428241       1.85600609      24.75741313
Si       7.36700966       4.76168355      24.07347568
Si       1.49566816       2.88875164      -0.43736807
Si       5.54688563       0.80195556      17.13815621
Si      10.50241921       3.04934981      31.91964331
Si      11.12755112       6.93066392      19.78197034
Si       6.89838600       3.91824616      11.21785316
Si       8.70651483       7.69516627      18.45846621
Si       4.88870064       3.38824125       9.41728954
Si       7.93829119       0.62786652      18.38956041
Si      12.80599788       3.29057227      33.24210606
Si       6.97472430       2.84532182      11.30864981
22
Lattice="4.657647105593534 0.5432618905769061 2.5413783021802003 2.71878945913488 6.6669233311548455 2.1771907387310727 8.6337918884128 0.783989508964681 32.90477732161826" Properties=species:S:1:pos:R:3 unique_starting_index=40 config_type=initial n_minim_iter=6 stress="0.00013898561705491283 0.0002939914093594026 -0.00018073258416770237 0.0002939914093594026 0.00016844614491629518 0.0001515871330905386 -0.00018073258416770237 0.0001515871330905386 -0.0001118309170950688" pbc="T T T"
Si      12.83336555       4.42379069      32.94849652
Si       4.29103204       3.47871863      10.49374974
Si       8.25451843       1.23385669      17.67974752
Si       8.51668365       3.11657628      29.94579927
Si      10.52858736       3.92500644      31.68246971
Si       8.91911024       6.74926596      18.27093147
Si       4.64992033       2.38800710      10.07382033
Si       8.47674233       6.50841312      19.13261345
Si       3.72921704       2.60665546       1.12671964
Si      12.41096939       4.30793584      33.74752223
Si       8.74384601       1.85696869      24.75661663
Si       7.36654476       4.76241680      24.07282363
Si       1.49576670       2.88865772      -0.43725363
Si       5.54654108       0.80264059      17.13763475
Si      10.50180697       3.05060457      31.91856154
Si      11.12734486       6.93166825      19.78129278
Si       6.89833879       3.91884204      11.21763891
Si       8.70633026       7.69607992      18.45805745
Si       4.88867231       3.38859094       9.41703572
Si       7.93793855       0.62855613      18.38892413
Si      12.80536898       3.29185230      33.24110696
Si       6.97462292       2.84589308      11.30818899
22
Lattice="4.657636556566419 0.5425838693965325 2.541553629255116 2.717960304815458 6.666257201481077 2.1772130616825125 8.634675968573752 0.78233943964121 32.905534839977285" Properties=species:S:1:pos:R:3 unique_starting_index=40 config_type=initial n_minim_iter=7 stress="-3.085899177841991e-05 -9.092183791991205e-05 1.839230007210052e-05 -9.092183791991205e-05 -9.640971724202556e-05 0.0001263840658564539 1.839230007210052e-05 0.0001263840658564539 8.860162910402122e-05" pbc="T T T"
Si      12.83383620       4.42147217      32.94926933
Si       4.29106774       3.47739082      10.49409522
Si       8.25481554       1.23266703      17.68034604
Si       8.51715055       3.11478515      29.94644771
Si      10.52888448       3.92330110      31.68359124
Si       8.91860152       6.74764364      18.27131881
Si       4.64969112       2.38719046      10.07423468
Si       8.47629576       6.50687169      19.13291276
Si       3.72881005       2.60624445       1.12683879
Si      12.41147845       4.30560672      33.74842416
Si       8.74443957       1.85542311      24.75713587
Si       7.36664602       4.76035481      24.07322996
Si       1.49537912       2.88798122      -0.43714422
Si       5.54699464       0.80176694      17.13803805
Si      10.50246464       3.04869630      31.91899856
Si      11.12692658       6.92980669      19.78159000
Si       6.89820424       3.91772116      11.21823670
Si       8.70586911       7.69441321      18.45855197
Si       4.88865697       3.38746957       9.41726726
Si       7.93834417       0.62715284      18.38943888
Si      12.80589269       3.28949297      33.24207865
Si       6.97458399       2.84481923      11.30835015
22
Lattice="4.657762440429237 0.5423050895835175 2.5413772716711893 2.7179817152376007 6.666334192055546 2.176409664130225 8.63507671975639 0.7788797694085187 32.90359863227959" Properties=species:S:1:pos:R:3 unique_starting_index=40 config_type=initial n_minim_iter=8 stress="0.00011173505459090398 -6.42958238143554e-05 -1.1178588509400682e-05 -6.42958238143554e-05 0.00020110032824175085 -0.00012293090200894417 -1.1178588509400682e-05 -0.00012293090200894417 -0.00021986335027463755" pbc="T T T"
Si      12.83436189       4.41816241      32.94700530
Si       4.29130426       3.47623895      10.49324904
Si       8.25511378       1.23094335      17.67929054
Si       8.51752212       3.11168468      29.94442995
Si      10.52918238       3.92034311      31.68158627
Si       8.91877216       6.74607188      18.26955386
Si       4.64973343       2.38614677      10.07350041
Si       8.47647016       6.50519487      19.13107839
Si       3.72881495       2.60629289       1.12652812
Si      12.41201886       4.30225299      33.74606498
Si       8.74485168       1.85289112      24.75549817
Si       7.36694011       4.75764645      24.07130341
Si       1.49541572       2.88789720      -0.43731884
Si       5.54724136       0.80009374      17.13698863
Si      10.50301095       3.04549661      31.91670934
Si      11.12717063       6.92817805      19.77967393
Si       6.89842419       3.91674286      11.21739634
Si       8.70612010       7.69285696      18.45675839
Si       4.88892160       3.38650733       9.41638609
Si       7.93862867       0.62509901      18.38831448
Si      12.80631507       3.28602920      33.23998493
Si       6.97483964       2.84378636      11.30732387
22
Lattice="4.657663357660081 0.5423245266470628 2.5415619069665354 2.7180829994609184 6.66597996672346 2.176402990034873 8.635195125543781 0.7782414519691109 32.905578138201875" Properties=species:S:1:pos:R:3 unique_starting_index=40 config_type=initial n_minim_iter=9 stress="-0.00017518343003662283 0.00021223250819584616 8.23393206053175e-05 0.00021223250819584616 -9.317375031113946e-05 -8.745638676534256e-05 8.23393206053175e-05 -8.745638676534256e-05 0.00019451373498066265" pbc="T T T"
Si      12.83448846       4.41741475      32.94898550
Si       4.29144290       3.47580452      10.49392063
Si       8.25507770       1.23073369      17.68042104
Si       8.51765096       3.11092062      29.94620275
Si      10.52921061       3.91978190      31.68357373
Si       8.91877764       6.74553520      18.27047907
Si       4.64968977       2.38576434      10.07411325
Si       8.47651324       6.50462987      19.13205385
Si       3.72872155       2.60626539       1.12661397
Si      12.41219611       4.30155770      33.74803037
Si       8.74495944       1.85241558      24.75692732
Si       7.36710695       4.75665006      24.07259172
Si       1.49545994       2.88757575      -0.43729850
Si       5.54728929       0.79986721      17.13802916
Si      10.50321347       3.04488659      31.91840267
Si      11.12713322       6.92775780      19.78067444
Si       6.89843486       3.91644928      11.21817631
Si       8.70623016       7.69225618      18.45773817
Si       4.88905592       3.38612557       9.41689406
Si       7.93860732       0.62471994      18.38940337
Si      12.80632767       3.28530141      33.24199206
Si       6.97487273       2.84356308      11.30788902
22
Lattice="4.657846213737263 0.5418487676368517 2.541325325668186 2.717485007202932 6.6654813308110175 2.176350460427545 8.634495348721538 0.7778326043384299 32.90435903980657" Properties=species:S:1:pos:R:3 unique_starting_index=40 config_type=initial n_minim_iter=10 stress="0.00012491062777966275 -6.602686049642941e-05 -0.00010046954919286746 -6.602686049642941e-05 -0.00011508761266238405 1.1756651962959828e-05 -0.00010046954919286746 1.1756651962959828e-05 3.8868213617406995e-05" pbc="T T T"
Si      12.83378319       4.41637706      32.94774868
Si       4.29109733       3.47531988      10.49374588
Si       8.25479179       1.23028628      17.67975050
Si       8.51677180       3.11022973      29.94522716
Si      10.52820425       3.91936577      31.68265517
Si       8.91787897       6.74475275      18.26962647
Si       4.64929557       2.38503531      10.07374594
Si       8.47560667       6.50391168      19.13120164
Si       3.72857377       2.60589067       1.12660986
Si      12.41148351       4.30078266      33.74666429
Si       8.74457174       1.85185689      24.75583866
Si       7.36624916       4.75541775      24.07159009
Si       1.49527499       2.88690733      -0.43710279
Si       5.54692472       0.79973923      17.13736106
Si      10.50263916       3.04437606      31.91673168
Si      11.12632801       6.92698258      19.77962591
Si       6.89807395       3.91579620      11.21797727
Si       8.70529678       7.69150608      18.45702092
Si       4.88888339       3.38547408       9.41651049
Si       7.93840937       0.62400362      18.38849469
Si      12.80561209       3.28429133      33.24063766
Si       6.97477540       2.84294659      11.30717450
22
Lattice="4.657795530550386 0.5417163176077218 2.54144301752623 2.717245219550967 6.66584593133151 2.176411059608691 8.635925676165614 0.7776994365702288 32.903077074996" Properties=species:S:1:pos:R:3 unique_starting_index=40 config_type=initial n_minim_iter=11 stress="-0.00024736792813416974 -2.596909460884274e-05 0.0002459266156019459 -2.596909460884274e-05 0.00038361761025738585 0.00019598454357218307 0.0002459266156019459 0.00019598454357218307 -0.00011668560369627484" pbc="T T T"
Si      12.83502395       4.41623019      32.94666963
Si       4.29146752       3.47548103      10.49362243
Si       8.25522635       1.23037214      17.67936867
Si       8.51788519       3.11015347      29.94419733
Si      10.52932226       3.91970906      31.68186441
Si       8.91816753       6.74506863      18.26904595
Si       4.64955263       2.38472644      10.07349274
Si       8.47599193       6.50425469      19.13058480
Si       3.72841302       2.60603160       1.12683084
Si      12.41277425       4.30087561      33.74559774
Si       8.74561560       1.85178226      24.75491140
Si       7.36712256       4.75492286      24.07059698
Si       1.49510545       2.88664896      -0.43683973
Si       5.54756657       0.79981922      17.13674420
Si      10.50395852       3.04452049      31.91517950
Si      11.12667332       6.92736143      19.77896800
Si       6.89825514       3.91587724      11.21806923
Si       8.70563306       7.69194112      18.45651363
Si       4.88922417       3.38541450       9.41633356
Si       7.93906875       0.62372243      18.38787603
Si      12.80671543       3.28410300      33.23966770
Si       6.97516182       2.84289639      11.30678198
22
Lattice="4.657969647447555 0.5413305273614758 2.54120187755097 2.7171064101802154 6.6651032728796435 2.175792000320454 8.635202514242918 0.7749093045942445 32.902349298522545" Properties=species:S:1:pos:R:3 unique_starting_index=40 config_type=initial n_minim_iter=12 stress="4.38289600033806e-05 -2.496798931552381e-06 -2.6429600442182466e-05 -2.496798931552381e-06 -3.351532079335829e-05 -7.565845855824586e-05 -2.6429600442182466e-05 -7.565845855824586e-05 4.081536914960657e-05" pbc="T T T"
Si      12.83457988       4.41290111      32.94542541
Si       4.29132785       3.47438136      10.49328707
Si       8.25480696       1.22898887      17.67891752
Si       8.51712344       3.10733635      29.94341868
Si      10.52858013       3.91711073      31.68118940
Si       8.91769915       6.74307546      18.26788239
Si       4.64938633       2.38325957      10.07305476
Si       8.47546662       6.50225367      19.12950566
Si       3.72853213       2.60577232       1.12654923
Si      12.41219162       4.29775924      33.74454211
Si       8.74527867       1.84953731      24.75408463
Si       7.36655104       4.75178447      24.06956196
Si       1.49513883       2.88593824      -0.43694080
Si       5.54715369       0.79845183      17.13628421
Si      10.50343828       3.04180151      31.91375475
Si      11.12637271       6.92527197      19.77753278
Si       6.89810292       3.91454272      11.21775798
Si       8.70516917       7.68988478      18.45536463
Si       4.88920293       3.38413121       9.41587754
Si       7.93880392       0.62195054      18.38727604
Si      12.80602817       3.28087978      33.23874115
Si       6.97524127       2.84155686      11.30597966
22
Lattice="4.658035734344069 0.5412433002880577 2.5410973546140836 2.7169548399921326 6.66496842671932 2.175850951825667 8.635338198360378 0.7754276612317532 32.90083402584961" Properties=species:S:1:pos:R:3 unique_starting_index=40 config_type=initial n_minim_iter=13 stress="1.3859614398917453e-05 -4.281990635094407e-05 2.421046802799401e-06 -4.281990635094407e-05 4.42116028129036e-06 4.379630744635964e-05 2.421046802799401e-06 4.379630744635964e-05 1.0186194091991659e-05" pbc="T T T"
Si      12.83483966       4.41317461      32.94400665
Si       4.29142749       3.47458342      10.49296329
Si       8.25466455       1.22946103      17.67836242
Si       8.51715820       3.10760964      29.94210072
Si      10.52833224       3.91792738      31.68005015
Si       8.91754104       6.74332987      18.26706398
Si       4.64950890       2.38302227      10.07266027
Si       8.47528165       6.50258479      19.12868593
Si       3.72849875       2.60584955       1.12661266
Si      12.41235271       4.29825185      33.74314802
Si       8.74548429       1.84983771      24.75288911
Si       7.36658630       4.75127755      24.06839731
Si       1.49518284       2.88536489      -0.43665723
Si       5.54712964       0.79878927      17.13547399
Si      10.50382975       3.04232873      31.91199592
Si      11.12640489       6.92554947      19.77639627
Si       6.89810364       3.91451155      11.21772903
Si       8.70499900       7.69009652      18.45458854
Si       4.88923020       3.38395905       9.41570089
Si       7.93886161       0.62213222      18.38638993
Si      12.80604880       3.28115216      33.23736803
Si       6.97546908       2.84141587      11.30528980
22
Lattice="4.658128913638307 0.5412924467136134 2.540921135656246 2.7172983724220896 6.6649327870345925 2.1753066732686976 8.635373320850839 0.7737050937092814 32.899188292782206" Properties=species:S:1:pos:R:3 unique_starting_index=40 config_type=initial n_minim_iter=14 stress="7.304289857674237e-06 -1.4515058461464767e-05 1.9230227682489443e-06 -1.4515058461464767e-05 7.088177259115959e-07 -1.2342940092888633e-05 1.9230227682489443e-06 -1.2342940092888633e-05 1.9867797167776646e-05" pbc="T T T"
Si      12.83504212       4.41158094      32.94212643
Si       4.29183055       3.47426066      10.49214877
Si       8.25438669       1.22902691      17.67774437
Si       8.51729811       3.10583256      29.94036554
Si      10.52832974       3.91687577      31.67872710
Si       8.91778235       6.74281895      18.26557805
Si       4.64991415       2.38239560      10.07206641
Si       8.47549744       6.50201138      19.12723103
Si       3.72868219       2.60622336       1.12659785
Si      12.41268585       4.29689836      33.74119861
Si       8.74572037       1.84859002      24.75147863
Si       7.36689421       4.74899724      24.06670523
Si       1.49536449       2.88480946      -0.43664517
Si       5.54707348       0.79812120      17.13456503
Si      10.50425919       3.04085078      31.90977760
Si      11.12678039       6.92525663      19.77446841
Si       6.89834767       3.91393499      11.21747750
Si       8.70525419       7.68949992      18.45303479
Si       4.88934737       3.38329135       9.41536501
Si       7.93883561       0.62126223      18.38530023
Si      12.80643393       3.27951025      33.23561956
Si       6.97598076       2.84068375      11.30422074
22
Lattice="4.658229331880793 0.5415397329146107 2.540697037642163 2.7178159084156506 6.665275563563085 2.174849055258578 8.6351141158392 0.7728597922567932 32.89736018452257" Properties=species:S:1:pos:R:3 unique_starting_index=40 config_type=initial n_minim_iter=15 stress="-1.1078838795433036e-07 -1.7931920290597636e-05 1.700799038013163e-06 -1.7931920290597636e-05 2.2296397854639426e-05 -2.838346787040007e-06 1.700799038013163e-06 -2.838346787040007e-06 1.1780079181869273e-05" pbc="T T T"
Si      12.83512716       4.41100720      32.93995705
Si       4.29228695       3.47431423      10.49124544
Si       8.25390014       1.22925465      17.67690896
Si       8.51727991       3.10505629      29.93857863
Si      10.52808493       3.91656189      31.67726858
Si       8.91794073       6.74308668      18.26406375
Si       4.65034432       2.38238300      10.07151165
Si       8.47578068       6.50219764      19.12565682
Si       3.72899278       2.60688202       1.12646953
Si      12.41270801       4.29662239      33.73917383
Si       8.74576578       1.84804039      24.74995814
Si       7.36713016       4.74749441      24.06492761
Si       1.49565782       2.88452956      -0.43643070
Si       5.54681031       0.79815475      17.13347350
Si      10.50467803       3.04050482      31.90732173
Si      11.12721574       6.92608631      19.77258125
Si       6.89852653       3.91370131      11.21720969
Si       8.70543806       7.68989928      18.45152122
Si       4.88944512       3.38307059       9.41501775
Si       7.93876290       0.62082945      18.38413411
Si      12.80646619       3.27903772      33.23370513
Si       6.97664671       2.84043089      11.30309539
22
Lattice="4.658273038754864 0.5416921175952439 2.540588703660808 2.7180934309943345 6.665421572900393 2.1746629261084607 8.634896360229058 0.7726561995821474 32.89659570894622" Properties=species:S:1:pos:R:3 unique_starting_index=40 config_type=initial n_minim_iter=16 stress="-6.9492001373435424e-06 -2.8043124466650954e-06 5.058527479150254e-06 -2.8043124466650954e-06 3.121505925378431e-05 -2.5628504632278587e-05 5.058527479150254e-06 -2.5628504632278587e-05 6.6875777581607085e-06" pbc="T T T"
Si      12.83514744       4.41092740      32.93910833
Si       4.29247463       3.47435166      10.49090598
Si       8.25360199       1.22953516      17.67651946
Si       8.51723286       3.10485369      29.93787764
Si      10.52782895       3.91660253      31.67658252
Si       8.91803002       6.74332701      18.26344858
Si       4.65051014       2.38247109      10.07132079
Si       8.47595278       6.50241079      19.12503064
Si       3.72923660       2.60718654       1.12639015
Si      12.41271621       4.29670058      33.73833199
Si       8.74571693       1.84790351      24.74932280
Si       7.36720040       4.74694835      24.06418285
Si       1.49571751       2.88441629      -0.43637788
Si       5.54664747       0.79826165      17.13300242
Si      10.50468336       3.04046860      31.90627841
Si      11.12737564       6.92654512      19.77173267
Si       6.89855739       3.91360399      11.21708908
Si       8.70551264       7.69016078      18.45087537
Si       4.88952641       3.38304909       9.41481143
Si       7.93862048       0.62072253      18.38364656
Si      12.80643983       3.27905794      33.23292124
Si       6.97699317       2.84040551      11.30261589
22
Lattice="4.658358641342681 0.5420382516767155 2.5403654435247707 2.7185321473449835 6.665600108870682 2.1746290415979095 8.634012362550576 0.7738039761956479 32.895477288888756" Properties=species:S:1:pos:R:3 unique_starting_index=40 config_type=initial n_minim_iter=17 stress="-3.923929067336271e-06 -4.687239497475485e-06 -5.507754356581819e-06 -4.687239497475485e-06 -2.1814848730384397e-07 -1.7958218980255095e-05 -5.507754356581819e-06 -1.7958218980255095e-05 1.65351413292057e-05" pbc="T T T"
Si      12.83453825       4.41215517      32.93794719
Si       4.29261118       3.47473232      10.49063538
Si       8.25280604       1.23089494      17.67597991
Si       8.51660761       3.10572551      29.93692374
Si      10.52711382       3.91813289      31.67579232
Si       8.91790970       6.74448421      18.26271537
Si       4.65064515       2.38306101      10.07123114
Si       8.47596148       6.50359203      19.12434124
Si       3.72968568       2.60764334       1.12626409
Si      12.41215038       4.29831430      33.73709167
Si       8.74527335       1.84866010      24.74840952
Si       7.36696212       4.74694975      24.06320936
Si       1.49604084       2.88413633      -0.43617182
Si       5.54605268       0.79918057      17.13225944
Si      10.50428737       3.04176765      31.90495126
Si      11.12741647       6.92806596      19.77051603
Si       6.89837464       3.91371044      11.21705974
Si       8.70529538       7.69124965      18.45005482
Si       4.88964837       3.38339689       9.41444521
Si       7.93810315       0.62133421      18.38287221
Si      12.80580782       3.28054368      33.23169401
Si       6.97761091       2.84077110      11.30189366
22
Lattice="4.658456641327066 0.5425036030983705 2.5400926446998495 2.719007693141939 6.666057339870509 2.1747515981773806 8.632974738246153 0.7760344882464443 32.8938463496112" Properties=species:S:1:pos:R:3 unique_starting_index=40 config_type=initial n_minim_iter=18 stress="4.820933390636e-06 -7.088734210735331e-06 -1.7911393677578585e-05 -7.088734210735331e-06 2.4527068486195865e-05 -8.290130805066133e-06 -1.7911393677578585e-05 -8.290130805066133e-06 2.556712860917692e-05" pbc="T T T"
Si      12.83387028       4.41459936      32.93627992
Si       4.29268734       3.47550226      10.49040393
Si       8.25186306       1.23282509      17.67534355
Si       8.51588660       3.10766681      29.93550113
Si      10.52616290       3.92077935      31.67454761
Si       8.91765981       6.74649262      18.26178588
Si       4.65078837       2.38404497      10.07116748
Si       8.47573175       6.50564743      19.12346528
Si       3.73018658       2.60819473       1.12624344
Si      12.41142389       4.30121027      33.73553439
Si       8.74473261       1.85017331      24.74716183
Si       7.36666295       4.74777745      24.06195957
Si       1.49643622       2.88391658      -0.43602031
Si       5.54529641       0.80070891      17.13123423
Si      10.50367680       3.04428136      31.90323514
Si      11.12752524       6.93066563      19.76919456
Si       6.89816072       3.91429603      11.21703006
Si       8.70499465       7.69324379      18.44906416
Si       4.88985151       3.38418547       9.41385768
Si       7.93767728       0.62261644      18.38169066
Si      12.80523095       3.28318142      33.23012268
Si       6.97832142       2.84148200      11.30097864
22
Lattice="4.658539153037645 0.5429619838622681 2.539842742783782 2.719472069372735 6.666416789839337 2.1749003003733254 8.632419416009114 0.7783898021012831 32.89154655728757" Properties=species:S:1:pos:R:3 unique_starting_index=40 config_type=initial n_minim_iter=19 stress="6.090825646223922e-06 -3.1492589687606795e-06 -1.581631266703064e-05 -3.1492589687606795e-06 2.355477517627891e-05 1.7120932476193563e-05 -1.581631266703064e-05 1.7120932476193563e-05 1.266726485469189e-05" pbc="T T T"
Si      12.83361795       4.41709551      32.93396744
Si       4.29284298       3.47623581      10.49002487
Si       8.25101050       1.23473189      17.67436344
Si       8.51554531       3.10978790      29.93344156
Si      10.52574960       3.92344570      31.67252610
Si       8.91771009       6.74844843      18.26066163
Si       4.65105565       2.38496791      10.07096998
Si       8.47577471       6.50764862      19.12232912
Si       3.73056947       2.60867114       1.12632422
Si      12.41110561       4.30410830      33.73341237
Si       8.74450362       1.85171856      24.74549495
Si       7.36669124       4.74873026      24.06027578
Si       1.49673721       2.88379140      -0.43572760
Si       5.54491681       0.80231938      17.12995927
Si      10.50364171       3.04680860      31.90095209
Si      11.12767143       6.93321339      19.76752729
Si       6.89814839       3.91501890      11.21688751
Si       8.70504584       7.69521163      18.44789220
Si       4.89016999       3.38496632       9.41308006
Si       7.93734285       0.62396768      18.38009993
Si      12.80508031       3.28585277      33.22798822
Si       6.97904639       2.84212119      11.29987137
22
Lattice="4.658630350565244 0.5433620483093856 2.5395731675346975 2.7200155754004207 6.666552176049499 2.174791387640574 8.632339925212396 0.7796428164685345 32.88836734187321" Properties=species:S:1:pos:R:3 unique_starting_index=40 config_type=initial n_minim_iter=20 stress="-9.764281565361375e-07 1.8978339025643398e-05 1.9764181188486767e-06 1.8978339025643398e-05 -8.170648533913096e-06 9.871338895249433e-06 1.9764181188486767e-06 9.871338895249433e-06 -1.5435120699902042e-05" pbc="T T T"
Si      12.83378745       4.41843926      32.93081359
Si       4.29318195       3.47650101      10.48928399
Si       8.25052282       1.23634246      17.67301326
Si       8.51569734       3.11092531      29.93048821
Si      10.52593255       3.92487862      31.66948450
Si       8.91790455       6.74970302      18.25886253
Si       4.65153592       2.38542125      10.07052950
Si       8.47605546       6.50890252      19.12049093
Si       3.73093084       2.60907906       1.12648968
Si      12.41135173       4.30578407      33.73024507
Si       8.74461812       1.85227365      24.74321913
Si       7.36712873       4.74872316      24.05778192
Si       1.49700458       2.88373786      -0.43546975
Si       5.54464177       0.80344540      17.12815395
Si      10.50404916       3.04821292      31.89769191
Si      11.12823100       6.93501437      19.76502898
Si       6.89840631       3.91543266      11.21655870
Si       8.70520248       7.69646086      18.44595148
Si       4.89066537       3.38531822       9.41196179
Si       7.93721765       0.62462913      18.37828860
Si      12.80543153       3.28735796      33.22492880
Si       6.97993669       2.84222528      11.29826908
22
Lattice="4.658735630301518 0.5435193478191345 2.5393327562469254 2.7203033708017275 6.666688406975725 2.1745541379857594 8.632032374805995 0.7796890962736716 32.886214607499795" Properties=species:S:1:pos:R:3 unique_starting_index=40 config_type=initial n_minim_iter=21 stress="1.0029893882094632e-05 2.405958076408934e-05 5.127932451401913e-07 2.405958076408934e-05 9.124140603562248e-06 -7.239222422745471e-06 5.127932451401913e-07 -7.239222422745471e-06 -1.0933028992929926e-05" pbc="T T T"
Si      12.83373782       4.41864440      32.92862973
Si       4.29344071       3.47641153      10.48868946
Si       8.24976808       1.23712815      17.67208624
Si       8.51564855       3.11098557      29.92841953
Si      10.52575143       3.92500721      31.66743938
Si       8.91779795       6.75025971      18.25741823
Si       4.65184675       2.38536628      10.07020578
Si       8.47605323       6.50943040      19.11913722
Si       3.73120091       2.60936518       1.12655731
Si      12.41132341       4.30603389      33.72799451
Si       8.74454315       1.85176767      24.74167938
Si       7.36725307       4.74800446      24.05590211
Si       1.49738150       2.88378528      -0.43554426
Si       5.54424648       0.80395686      17.12693134
Si      10.50395215       3.04847778      31.89552878
Si      11.12840146       6.93609643      19.76292462
Si       6.89851363       3.91540899      11.21648400
Si       8.70509459       7.69710359      18.44440627
Si       4.89098876       3.38521312       9.41118897
Si       7.93694757       0.62444292      18.37697542
Si      12.80534424       3.28753328      33.22267176
Si       6.98067299       2.84195677      11.29683948
