24
Lattice="16.623100163610207 0.9427167733167736 -8.024976918449518 -7.62693825599312 7.148005161432673 6.84166237735226 -9.66624641620502 4.2304417599844495 20.06225996992094" Properties=species:S:1:pos:R:3 unique_starting_index=90 config_type=initial n_minim_iter=1 energy=-4228.64362762928 free_energy=-4228.64362762928 pbc="T T T"
Si       7.54156592       3.50138049       7.63929665
Si      -3.71963417       2.05500198       4.83122720
Si       6.32096990       8.38129237       5.26153217
Si      -2.99911612       2.16070631       4.11937334
Si       2.09898118       7.35038797      16.73665332
Si     -14.84961079       9.16331542      22.34826912
Si      -3.04129449       2.75958623       5.14181458
Si       1.69474958       8.74034986      15.33805375
Si     -15.27060270      10.50360451      22.33520362
Si       6.75016043       5.69689406       6.13572992
Si       1.32978238       5.33151553       3.28486762
Si       6.42087787       7.91616527       4.45633746
Si       5.09636868       9.57165911       2.82518257
Si       3.58340549       5.71808379      11.18008499
Si      -4.52566170       4.18245885       3.47186200
Si     -16.10397268      10.41000447      22.97212051
Si      -4.06534555       2.41118539       5.68341594
Si       1.71459442       9.23788900      16.13137075
Si      -3.75423159       7.03813177      15.26557384
Si      -9.18200994       5.41651801      14.67574623
Si       0.73026782      10.77289412      13.82087842
Si      12.56582969       2.06090472      -2.79230025
Si       7.74024336       5.86755265       5.71160756
Si       0.41854882       6.72748345       4.87497356
24
Lattice="16.623214299129145 0.9354290031185925 -8.02241056281087 -7.631303663582243 7.156572373791738 6.83803809676115 -9.66374820216704 4.231202354931343 20.06508763453168" Properties=species:S:1:pos:R:3 unique_starting_index=90 config_type=initial n_minim_iter=2 stress="0.00895130966115492 0.001367514965528703 0.0015958666936105382 0.001367514965528703 0.010967878445760361 -0.00860281719113748 0.0015958666936105382 -0.00860281719113748 0.005025434707712813" pbc="T T T"
Si       7.54393753       3.49520251       7.64378519
Si      -3.72004581       2.05719886       4.83068134
Si       6.31822178       8.38152158       5.26203341
Si      -2.99962614       2.16276063       4.11891737
Si       2.10049652       7.34716884      16.74094590
Si     -14.85101050       9.17108579      22.34774257
Si      -3.04202037       2.76163258       5.14148567
Si       1.69494167       8.73891842      15.34114133
Si     -15.27321794      10.51306859      22.33370684
Si       6.75007905       5.69394794       6.13827110
Si       1.32747548       5.33369914       3.28415674
Si       6.41821510       7.91635376       4.45672373
Si       5.09155773       9.57510603       2.82352337
Si       3.58448132       5.71495132      11.18347456
Si      -4.52830883       4.18779052       3.46939555
Si     -16.10631210      10.41970190      22.97050652
Si      -4.06587249       2.41353377       5.68327183
Si       1.71451400       9.23680658      16.13434270
Si      -3.75427185       7.03949781      15.26721843
Si      -9.18228570       5.42055193      14.67589592
Si       0.72795800      10.77503686      13.82177955
Si      12.56612799       2.05488120      -2.78948869
Si       7.74001752       5.86441343       5.71415358
Si       0.41564970       6.73075354       4.87385073
24
Lattice="16.527449490498736 0.8107841354948798 -7.988568493545137 -7.629355474458198 7.212034129694625 6.83974570703661 -9.611655122959416 4.3352779300081075 20.050973012904393" Properties=species:S:1:pos:R:3 unique_starting_index=90 config_type=initial n_minim_iter=3 stress="0.00899200657734218 -0.011840135911635795 0.005028263020868996 -0.011840135911635795 0.004209961195377209 0.0065403504260324406 0.005028263020868996 0.0065403504260324406 -0.01982494220478589" pbc="T T T"
Si       7.50488173       3.46388672       7.66061272
Si      -3.70557055       2.09181878       4.82242620
Si       6.23927881       8.34436226       5.28859465
Si      -2.98742889       2.18890991       4.11783059
Si       2.06694507       7.37287567      16.75006373
Si     -14.80033973       9.30433154      22.34226291
Si      -3.03691135       2.78779776       5.14123323
Si       1.66385739       8.74462074      15.36405875
Si     -15.23295976      10.65266942      22.32641539
Si       6.69630699       5.65875383       6.16375209
Si       1.29335190       5.32744922       3.29879330
Si       6.34126928       7.87904099       4.48199544
Si       5.00916702       9.53856806       2.85229803
Si       3.55159474       5.71263621      11.19834342
Si      -4.52392192       4.21929431       3.46778837
Si     -16.05541510      10.56699348      22.95766858
Si      -4.05362954       2.45209470       5.68561792
Si       1.67456354       9.25354253      16.15000550
Si      -3.75501839       7.09118090      15.27201669
Si      -9.14569910       5.50185704      14.67029462
Si       0.68017314      10.78960441      13.84445343
Si      12.48961634       1.96348005      -2.75731521
Si       7.67691185       5.82700999       5.73840345
Si       0.38039143       6.73124871       4.88834550
24
Lattice="16.418036431438487 0.8316909048372199 -8.076983433224438 -7.577733302955951 7.181933574830811 6.895910486019667 -9.557298078867008 4.286170485527832 20.23602441392179" Properties=species:S:1:pos:R:3 unique_starting_index=90 config_type=initial n_minim_iter=4 stress="-0.011426683440484973 0.003640513180088233 -0.0005313967754638623 0.003640513180088233 -0.0012366634720925795 -0.0016944608147615203 -0.0005313967754638623 -0.0016944608147615203 0.005157389310342504" pbc="T T T"
Si       7.45372464       3.44798220       7.71805397
Si      -3.68117231       2.07938126       4.86119277
Si       6.18944693       8.31993456       5.31569455
Si      -2.96260918       2.17653611       4.15420255
Si       2.03781426       7.32988906      16.88930720
Si     -14.70692418       9.23728920      22.54797693
Si      -3.01829395       2.77013132       5.18625163
Si       1.64726952       8.69622918      15.48783158
Si     -15.13993597      10.58705279      22.52764478
Si       6.64962261       5.63856622       6.20820549
Si       1.28392058       5.31262693       3.31937802
Si       6.29135585       7.86015355       4.50095953
Si       4.97143443       9.51750590       2.85506987
Si       3.52122092       5.68315103      11.28773135
Si      -4.48832121       4.20419399       3.49166687
Si     -15.95136299      10.50027107      23.16263375
Si      -4.02960920       2.43735445       5.74258282
Si       1.65254008       9.20750322      16.27985616
Si      -3.73686942       7.04784179      15.40335628
Si      -9.08650447       5.45541697      14.80573274
Si       0.67015377      10.74213445      13.95294366
Si      12.40178243       1.96811734      -2.79203919
Si       7.62088593       5.81451368       5.77342900
Si       0.37762301       6.70907142       4.92014964
24
Lattice="16.41949001177631 0.7439366124330763 -8.126942268105855 -7.610639934571369 7.194533437249838 6.951365331102766 -9.589485297601414 4.350512410657108 20.349816899861327" Properties=species:S:1:pos:R:3 unique_starting_index=90 config_type=initial n_minim_iter=5 stress="0.0006854227431660099 -0.0008467581131281998 0.002320712691065733 -0.0008467581131281998 -0.00037790336727193494 0.0011985046033457024 0.002320712691065733 0.0011985046033457024 0.012153166334716475" pbc="T T T"
Si       7.44548994       3.42197221       7.75394450
Si      -3.69202861       2.09826922       4.88306543
Si       6.14162242       8.26052072       5.35358939
Si      -2.95855569       2.18878417       4.18186268
Si       1.98390490       7.31871338      16.99019334
Si     -14.75444254       9.30005151      22.70100863
Si      -3.03218191       2.77853673       5.22004971
Si       1.60127528       8.68385987      15.57037027
Si     -15.20071884      10.65431656      22.67632766
Si       6.62533933       5.59719747       6.25186934
Si       1.25940313       5.29255679       3.34831081
Si       6.24932066       7.80451006       4.53282092
Si       4.92044253       9.45819426       2.88303187
Si       3.48987574       5.66841188      11.34945569
Si      -4.49672818       4.21469753       3.51299845
Si     -16.00103909      10.57535564      23.30919904
Si      -4.04694409       2.46072561       5.78769903
Si       1.59689060       9.20040696      16.36817066
Si      -3.77661075       7.06437164      15.49602563
Si      -9.11197749       5.49242269      14.89960574
Si       0.61907706      10.71545886      14.04490498
Si      12.37756909       1.90531369      -2.80647562
Si       7.59252004       5.78104663       5.80653857
Si       0.34843027       6.68643039       4.95643638
24
Lattice="16.386064206638725 0.7667062428497488 -8.125033526596114 -7.610576256803188 7.176931344611479 6.895752932057763 -9.620505024640881 4.2753666923321125 20.219697336624932" Properties=species:S:1:pos:R:3 unique_starting_index=90 config_type=initial n_minim_iter=6 stress="-0.0043858821422517276 0.0013890911286024961 -0.005540564913852336 0.0013890911286024961 0.0103949671806103 -0.00876971420309817 -0.005540564913852336 -0.00876971420309817 0.002278307119375622" pbc="T T T"
Si       7.40330059       3.38875566       7.66029415
Si      -3.69913109       2.08335649       4.84699637
Si       6.08664299       8.23286960       5.25687355
Si      -2.95045909       2.17717859       4.15336164
Si       1.90935409       7.25043686      16.83692944
Si     -14.77271592       9.22198359      22.55520811
Si      -3.03882677       2.76181209       5.18062255
Si       1.54321699       8.62516062      15.41530560
Si     -15.22367076      10.58289703      22.52155631
Si       6.58020648       5.56768170       6.16869379
Si       1.24004907       5.28428884       3.30033956
Si       6.20106135       7.78371219       4.44923252
Si       4.87862484       9.44696039       2.80686487
Si       3.43974758       5.62276910      11.23348403
Si      -4.48713213       4.20840946       3.48150698
Si     -16.01687969      10.50437885      23.15411322
Si      -4.05520178       2.44586167       5.74831961
Si       1.53826787       9.12777173      16.20925761
Si      -3.81538445       7.00694604      15.37002223
Si      -9.12609733       5.44243553      14.79927270
Si       0.57138515      10.66079923      13.89706316
Si      12.32668344       1.91110756      -2.82882632
Si       7.54604087       5.76252098       5.71902868
Si       0.32831487       6.66968196       4.88976205
24
Lattice="16.360074974444707 0.7498956645579757 -8.086643688085903 -7.595341363177849 7.155546140108491 6.882342860971027 -9.562855477638712 4.2660703724868005 20.219605289882946" Properties=species:S:1:pos:R:3 unique_starting_index=90 config_type=initial n_minim_iter=7 stress="0.007388683340615763 0.0007064409941194282 0.0036376263542616184 0.0007064409941194282 -0.011613517293145987 -0.006821265268463759 0.0036376263542616184 -0.006821265268463759 0.009351023013296144" pbc="T T T"
Si       7.42792147       3.37078277       7.69270149
Si      -3.68862362       2.07614536       4.84175769
Si       6.08892189       8.19007015       5.28326890
Si      -2.93342371       2.17195248       4.15127040
Si       1.94631501       7.21960183      16.86698215
Si     -14.70728222       9.19853568      22.54453317
Si      -3.02418742       2.75428850       5.17941576
Si       1.58311072       8.58940985      15.44004549
Si     -15.16108220      10.55546664      22.50792705
Si       6.59284558       5.53853322       6.19984917
Si       1.24493670       5.26448169       3.31049099
Si       6.20051044       7.74747998       4.47312718
Si       4.87347719       9.40294918       2.82612391
Si       3.46896297       5.59742674      11.25886601
Si      -4.47584698       4.19580260       3.47340928
Si     -15.95031576      10.48012327      23.14288047
Si      -4.04069042       2.44124609       5.74174006
Si       1.58205224       9.08554902      16.23840282
Si      -3.77477016       6.98179732      15.38086897
Si      -9.08440758       5.43286905      14.79147456
Si       0.60805538      10.61758497      13.91413301
Si      12.30614189       1.89425268      -2.79306319
Si       7.56006964       5.73575237       5.75209353
Si       0.33836325       6.64244821       4.89602888
24
Lattice="16.04372127605584 0.6641787155762208 -7.970700917424755 -7.449209509622804 7.2592468791894245 6.874066032429395 -9.290458596850607 4.436881148042064 20.17819714179328" Properties=species:S:1:pos:R:3 unique_starting_index=90 config_type=initial n_minim_iter=8 stress="-3.7634205312047304e-05 0.005809157537499268 0.00767547886827261 0.005809157537499268 0.028965075293603877 -0.0070934872834929 0.00767547886827261 -0.0070934872834929 0.013780006148052425" pbc="T T T"
Si       7.37064085       3.42782645       7.75719509
Si      -3.61448875       2.11211121       4.82724180
Si       5.96877179       8.23736733       5.37305605
Si      -2.84379758       2.21979611       4.14995909
Si       1.97573283       7.34403452      16.92175888
Si     -14.32956673       9.43025739      22.50455509
Si      -2.94438539       2.81344652       5.17870881
Si       1.64032697       8.72475788      15.49387936
Si     -14.78511826      10.79660892      22.46694700
Si       6.50664666       5.58451868       6.28533617
Si       1.22910082       5.32188492       3.35859267
Si       6.07281768       7.80387279       4.55166927
Si       4.76480821       9.44686039       2.91910717
Si       3.47288399       5.68936585      11.30752803
Si      -4.37862072       4.25311908       3.47438113
Si     -15.55246005      10.73745927      23.12011974
Si      -3.94849543       2.50533414       5.71472672
Si       1.64396775       9.23515499      16.29921955
Si      -3.63344537       7.12267061      15.39709556
Si      -8.85433784       5.60178476      14.75550579
Si       0.67951938      10.76078734      13.95568176
Si      12.04948883       1.85746297      -2.68487104
Si       7.47147818       5.79187240       5.84637277
Si       0.35037925       6.70602361       4.92972512
24
Lattice="15.911128269982125 0.5585319670640362 -8.024488772066169 -7.448376439026316 7.251251320372468 6.888794279547453 -9.281987008918207 4.435601954846641 20.226045230547236" Properties=species:S:1:pos:R:3 unique_starting_index=90 config_type=initial n_minim_iter=9 stress="-0.009873036972946801 -0.006515724078791009 0.0027714046203095115 -0.006515724078791009 0.016986625485914408 -0.007806216637832008 0.0027714046203095115 -0.007806216637832008 0.011388550258797474" pbc="T T T"
Si       7.27128715       3.34376518       7.74590458
Si      -3.61052069       2.10772627       4.83852738
Si       5.82928318       8.12397085       5.35092410
Si      -2.84008132       2.21748955       4.16254489
Si       1.85810787       7.24270405      16.92816574
Si     -14.30545828       9.43103109      22.55751215
Si      -2.94705311       2.80436214       5.18971719
Si       1.53258064       8.62425562      15.49850956
Si     -14.76819273      10.78741218      22.51495630
Si       6.39066192       5.48610229       6.27190525
Si       1.17175978       5.27527691       3.35411149
Si       5.94285933       7.69034781       4.52844985
Si       4.63982416       9.33786686       2.89516525
Si       3.37723340       5.60402794      11.30327175
Si      -4.37215191       4.25131116       3.48262512
Si     -15.53209886      10.73869097      23.18543549
Si      -3.94386240       2.50451545       5.72364658
Si       1.52673202       9.13291334      16.30327329
Si      -3.68436397       7.07032073      15.41814847
Si      -8.84469801       5.60717965      14.79055179
Si       0.57952880      10.65826612      13.94385198
Si      11.91684423       1.76399859      -2.71607198
Si       7.35402349       5.68956973       5.82907420
Si       0.29073903       6.64648742       4.91930460
24
Lattice="15.978890573012603 0.6144320164302067 -8.035663072845518 -7.460313355841291 7.2196365707773635 6.884490657767654 -9.315321248948921 4.380964235738186 20.230665884042526" Properties=species:S:1:pos:R:3 unique_starting_index=90 config_type=initial n_minim_iter=10 stress="0.007952300790498421 -0.0006857932956331578 -0.00180421193654523 -0.0006857932956331578 0.017476176905411627 -0.0018126134233551494 -0.00180421193654523 -0.0018126134233551494 0.006642908771568244" pbc="T T T"
Si       7.31360776       3.36241870       7.73923207
Si      -3.62348167       2.08565190       4.83569513
Si       5.86128359       8.12960059       5.33967151
Si      -2.85008061       2.20208419       4.16570730
Si       1.86887472       7.22256189      16.91527505
Si     -14.33469970       9.36211854      22.55635379
Si      -2.95037047       2.78547229       5.18949204
Si       1.55739944       8.60433447      15.49449310
Si     -14.79862348      10.71368245      22.50920667
Si       6.42350054       5.49321081       6.26519489
Si       1.18894068       5.27801751       3.35065411
Si       5.97952311       7.69022800       4.52003486
Si       4.67632464       9.34075753       2.88200543
Si       3.40204419       5.59722717      11.29381628
Si      -4.37421747       4.23798722       3.47926594
Si     -15.56918646      10.66886088      23.19191707
Si      -3.95654637       2.48161247       5.72083383
Si       1.54743634       9.11712089      16.29419754
Si      -3.68554710       7.03674292      15.41555807
Si      -8.86767827       5.56258027      14.79560629
Si       0.61853799      10.64019190      13.92352830
Si      11.95741697       1.79924552      -2.71942327
Si       7.39885622       5.70334651       5.82028273
Si       0.31101099       6.63765869       4.90753583
24
Lattice="15.836385466337559 0.6794552316759757 -7.883264636997138 -7.353379596276691 7.165929668173353 6.776405315778069 -9.111743620191742 4.287123340269172 20.054416465821568" Properties=species:S:1:pos:R:3 unique_starting_index=90 config_type=initial n_minim_iter=11 stress="-0.00213717169884791 -0.0005258536761677438 0.010110811717432593 -0.0005258536761677438 0.013635204889920378 -0.010862366730829624 0.010110811717432593 -0.010862366730829624 0.0007488812284051732" pbc="T T T"
Si       7.34875858       3.36658602       7.74257531
Si      -3.56757027       2.05352517       4.77582732
Si       5.87655229       8.11029946       5.33776695
Si      -2.81035507       2.17290256       4.12423907
Si       1.98673664       7.16145723      16.81982329
Si     -14.05973539       9.24386377      22.31619861
Si      -2.88967914       2.75055439       5.13552879
Si       1.67747561       8.55299802      15.40673815
Si     -14.52640305      10.58879838      22.25784084
Si       6.44034252       5.48002431       6.26833468
Si       1.21811181       5.26821752       3.33257314
Si       5.98776425       7.66846630       4.52663926
Si       4.68700005       9.31880023       2.87643251
Si       3.47760744       5.56154610      11.24400068
Si      -4.31131690       4.21126747       3.42045558
Si     -15.28968917      10.55158223      22.94057411
Si      -3.89253801       2.44440161       5.65402537
Si       1.67263108       9.05843394      16.19894109
Si      -3.53912933       6.96622085      15.29627513
Si      -8.69850242       5.48139195      14.65199953
Si       0.75550047      10.57983086      13.82326352
Si      11.86542923       1.82855211      -2.61798847
Si       7.41404330       5.69522117       5.83152753
Si       0.36397635       6.60899980       4.86187179
24
Lattice="15.818477242698444 0.6268123886225951 -7.9258981510456366 -7.3601980452197004 7.228759633291268 6.83587933222216 -9.129253440148506 4.396282827970863 20.143732711542384" Properties=species:S:1:pos:R:3 unique_starting_index=90 config_type=initial n_minim_iter=12 stress="-0.0007898422368687541 -0.0049859995227699945 0.0028811955782975626 -0.0049859995227699945 0.012363659967953104 0.0028993918270700503 0.0028811955782975626 0.0028993918270700503 0.0002926385545989076" pbc="T T T"
Si       7.33545038       3.41740567       7.76475114
Si      -3.57735632       2.08164450       4.80109822
Si       5.84105265       8.14967300       5.38713545
Si      -2.82428899       2.19105457       4.15007790
Si       1.94186943       7.25383225      16.88831167
Si     -14.06103580       9.39207574      22.43712833
Si      -2.89812226       2.77696782       5.16541412
Si       1.64161866       8.65288082      15.48006039
Si     -14.53998224      10.73878666      22.38078976
Si       6.40837260       5.51550194       6.30299546
Si       1.20325390       5.30601921       3.36696791
Si       5.95055469       7.69642362       4.56923902
Si       4.65569361       9.34495978       2.91711382
Si       3.45012454       5.62075377      11.28879027
Si      -4.31055427       4.24595219       3.45676786
Si     -15.30532500      10.71989103      23.07244095
Si      -3.90601846       2.47829353       5.68331513
Si       1.63369515       9.15178742      16.28442854
Si      -3.56257361       7.05617615      15.37601185
Si      -8.71204169       5.56878112      14.73677743
Si       0.73835914      10.67003596      13.90053134
Si      11.83596486       1.79797929      -2.62819612
Si       7.38473238       5.72546960       5.86281091
Si       0.35184471       6.64876795       4.89719198
24
Lattice="15.86636192653733 0.6900584455733293 -7.96117938119094 -7.376582199881435 7.180065326548581 6.815474571560668 -9.189282068536336 4.2913922357400205 20.11960598560927" Properties=species:S:1:pos:R:3 unique_starting_index=90 config_type=initial n_minim_iter=13 stress="0.003500688736978979 -0.007050285170961322 0.0008238569615255733 -0.007050285170961322 0.007943412568785595 -0.003576745744099054 0.0008238569615255733 -0.003576745744099054 -0.0024886075617036336" pbc="T T T"
Si       7.35831772       3.42520857       7.71139981
Si      -3.60915862       2.04482885       4.80015239
Si       5.85366485       8.12873152       5.33963074
Si      -2.84586364       2.14566758       4.13521133
Si       1.90378648       7.18459363      16.81759753
Si     -14.09775156       9.27005808      22.40379174
Si      -2.92084254       2.73141009       5.15170305
Si       1.63004455       8.59122480      15.41334607
Si     -14.59414252      10.60825699      22.33847066
Si       6.40977640       5.50228823       6.25620716
Si       1.20552401       5.30169411       3.34207814
Si       5.94971074       7.68186364       4.52403736
Si       4.66361405       9.32541945       2.86084990
Si       3.43935519       5.57573263      11.22826497
Si      -4.31640162       4.22036009       3.44938814
Si     -15.35907119      10.60035972      23.03339878
Si      -3.94074803       2.43904018       5.67297113
Si       1.60738613       9.08623543      16.21192131
Si      -3.59362606       6.97853218      15.33430859
Si      -8.76458913       5.48238293      14.71719788
Si       0.74274006      10.60879050      13.82460450
Si      11.85301181       1.82092929      -2.66092752
Si       7.38688223       5.70719425       5.81109156
Si       0.35959355       6.62135899       4.85288708
24
Lattice="15.841046008671514 0.7565604652083632 -7.9364902733305 -7.328527440448837 7.160995365701618 6.808432463455238 -9.118154380475978 4.256024012739667 20.135513613209064" Properties=species:S:1:pos:R:3 unique_starting_index=90 config_type=initial n_minim_iter=14 stress="0.0070902659329424664 -0.008010594495701254 0.003421753284503452 -0.008010594495701254 0.007165736107359135 -0.002607912063418212 0.003421753284503452 -0.002607912063418212 -0.0001847948305245819" pbc="T T T"
Si       7.41520636       3.48251973       7.73774893
Si      -3.60592728       2.02159857       4.80686849
Si       5.88933987       8.17659192       5.36465073
Si      -2.83976950       2.11153149       4.12889647
Si       1.96204906       7.20454863      16.84837755
Si     -13.96783454       9.22837533      22.41492415
Si      -2.91028743       2.70225952       5.15139743
Si       1.71067395       8.61376417      15.43855926
Si     -14.48092220      10.56107500      22.34519346
Si       6.44063101       5.54177011       6.28671140
Si       1.23228071       5.32686071       3.35694881
Si       5.98431672       7.70780753       4.56157473
Si       4.69181982       9.35325382       2.87656649
Si       3.49026247       5.59489345      11.24787176
Si      -4.28655825       4.21044323       3.45013131
Si     -15.23320633      10.56168185      23.04080054
Si      -3.93575280       2.41860838       5.67440322
Si       1.68067834       9.10585691      16.24467554
Si      -3.52382301       6.97067360      15.35667181
Si      -8.71438950       5.45038244      14.72337090
Si       0.83267186      10.63037787      13.84294286
Si      11.83429710       1.86671884      -2.62974320
Si       7.41117908       5.74105569       5.84334070
Si       0.40510328       6.63061682       4.85430936
24
Lattice="15.807550640400661 0.8404509011019622 -7.955654898580544 -7.284208895219737 7.149499788400474 6.808666241577028 -9.088860753717148 4.204053011354913 20.153429498290585" Properties=species:S:1:pos:R:3 unique_starting_index=90 config_type=initial n_minim_iter=15 stress="0.009080014980705277 -0.009893594942153286 0.003937808417920342 -0.009893594942153286 0.015088807801722826 -0.00887545869998682 0.003937808417920342 -0.00887545869998682 0.007791743424292567" pbc="T T T"
Si       7.43159841       3.52867749       7.73550756
Si      -3.60608965       1.99689185       4.80146038
Si       5.90662823       8.23535289       5.35880811
Si      -2.85133592       2.07354467       4.13647130
Si       1.96670642       7.22662097      16.84602147
Si     -13.86984007       9.17463819      22.44083240
Si      -2.91555356       2.66748561       5.14431626
Si       1.73970464       8.63753637      15.43032584
Si     -14.40169226      10.51300764      22.35540303
Si       6.43625039       5.58987392       6.28195646
Si       1.24711899       5.36274014       3.35694952
Si       5.99254506       7.75988675       4.55070634
Si       4.70485041       9.40846715       2.86873371
Si       3.50188017       5.61617136      11.23433920
Si      -4.24912450       4.20365183       3.45546921
Si     -15.14298792      10.51752530      23.06927993
Si      -3.94553089       2.40201226       5.68445159
Si       1.69821627       9.12500097      16.23746016
Si      -3.48911735       6.96265713      15.36489263
Si      -8.68668725       5.41783899      14.73454887
Si       0.88512661      10.66093116      13.82854132
Si      11.79559679       1.93324594      -2.64275406
Si       7.41032311       5.78487699       5.84092026
Si       0.43660517       6.65148063       4.84053912
24
Lattice="15.837007495715849 0.855515599724127 -7.956885157316671 -7.293998994887321 7.134301515542943 6.802227670282441 -9.104149052067276 4.177865846479917 20.149300223882598" Properties=species:S:1:pos:R:3 unique_starting_index=90 config_type=initial n_minim_iter=16 stress="0.01216128470262974 -0.009383167026442254 0.0029941244501553283 -0.009383167026442254 0.013456405976022594 -0.012362429890734827 0.0029941244501553283 -0.012362429890734827 0.010523191818082232" pbc="T T T"
Si       7.45077189       3.52781429       7.73232381
Si      -3.61810325       1.98662175       4.80317339
Si       5.91882691       8.22913397       5.34624237
Si      -2.86038598       2.05848506       4.13622896
Si       1.96953156       7.20837042      16.83823577
Si     -13.87784136       9.13931302      22.43629008
Si      -2.92501004       2.65100372       5.14009805
Si       1.74800356       8.62079489      15.41835664
Si     -14.41917264      10.47646088      22.34426209
Si       6.44795110       5.58500706       6.27746571
Si       1.25109855       5.36041837       3.35349316
Si       6.00334437       7.75666724       4.54208472
Si       4.71262489       9.39911170       2.85980142
Si       3.51231553       5.60357250      11.22401529
Si      -4.25308006       4.19576701       3.45123191
Si     -15.16211321      10.48598806      23.06339857
Si      -3.95895554       2.39197974       5.68247743
Si       1.70281572       9.10363457      16.22559914
Si      -3.48964182       6.94272615      15.35899411
Si      -8.69925412       5.39632750      14.73211866
Si       0.89851328      10.64194283      13.81585415
Si      11.81703799       1.94057157      -2.64186796
Si       7.42841954       5.77967970       5.83714521
Si       0.44302204       6.64198689       4.83196797
24
Lattice="15.71517625091025 0.8834761870429322 -7.925029796556412 -7.212277189505847 7.1451870352781715 6.804935004045995 -8.974259519092811 4.191698422788411 20.178855439085613" Properties=species:S:1:pos:R:3 unique_starting_index=90 config_type=initial n_minim_iter=17 stress="0.008959754377676722 -0.009411554940275487 0.00451056489984659 -0.009411554940275487 0.01712672166606309 -0.013092829532811422 0.00451056489984659 -0.013092829532811422 0.015661367352733636" pbc="T T T"
Si       7.44504505       3.57676840       7.78267014
Si      -3.60010659       1.99028669       4.81691337
Si       5.91405738       8.26222127       5.38473008
Si      -2.83560220       2.04658573       4.14109760
Si       2.01739602       7.25152230      16.89554669
Si     -13.66363811       9.15496206      22.47097394
Si      -2.89704105       2.64207618       5.14385333
Si       1.81143655       8.66307406      15.47328479
Si     -14.22753430      10.49504629      22.36688700
Si       6.43595196       5.62544385       6.32542690
Si       1.26240344       5.39104778       3.37679405
Si       5.99327972       7.79091658       4.58366056
Si       4.69348689       9.43055940       2.88969802
Si       3.54332769       5.63809124      11.25972773
Si      -4.20665396       4.20088014       3.45069886
Si     -14.96435258      10.52003782      23.09466083
Si      -3.92843086       2.39477713       5.68527784
Si       1.75948098       9.14910756      16.28231894
Si      -3.39490727       6.97426299      15.39965823
Si      -8.58083375       5.41129888      14.75637472
Si       0.97491073      10.69031733      13.86493221
Si      11.73223591       1.97384577      -2.60146738
Si       7.41772465       5.82543141       5.88782917
Si       0.47499121       6.66476093       4.84879754
24
Lattice="15.650802321758714 0.9276239397006312 -7.875777009909713 -7.156162472582 7.133398301367098 6.777292786062282 -8.882463378856727 4.164595117579407 20.141876482257302" Properties=species:S:1:pos:R:3 unique_starting_index=90 config_type=initial n_minim_iter=18 stress="0.007392768460844122 -0.007805518952221982 0.004359144060183791 -0.007805518952221982 0.016417068658417085 -0.014193192357850862 0.004359144060183791 -0.014193192357850862 0.015177470467329479" pbc="T T T"
Si       7.46370113       3.61421392       7.79926769
Si      -3.59093615       1.96882895       4.80405324
Si       5.92544417       8.27903868       5.39295963
Si      -2.81745460       2.02968131       4.12790162
Si       2.06143354       7.25805135      16.88474497
Si     -13.50321682       9.11662432      22.42295573
Si      -2.87172478       2.62932326       5.12930871
Si       1.87144063       8.67399680      15.46408062
Si     -14.09514074      10.45969144      22.30938935
Si       6.45256942       5.65233141       6.34396499
Si       1.27765150       5.40760069       3.37862590
Si       6.00228531       7.80598506       4.59188126
Si       4.69580314       9.44735755       2.90125734
Si       3.58349155       5.64787721      11.24958930
Si      -4.17454020       4.18764471       3.43828305
Si     -14.82731510      10.49099745      23.03485193
Si      -3.91038210       2.38432918       5.67492571
Si       1.81441128       9.15906497      16.27653625
Si      -3.31582155       6.97115745      15.38204829
Si      -8.49873545       5.39530346      14.72157418
Si       1.04462292      10.70409424      13.85547683
Si      11.69179970       2.00590117      -2.55723667
Si       7.43280795       5.85736309       5.90894831
Si       0.50707781       6.67148692       4.84073269
24
Lattice="15.563661471380032 0.9580441991155556 -7.814864397290811 -7.091542731540062 7.144035574015417 6.75055162210256 -8.77607056738887 4.171791554976985 20.089826715815892" Properties=species:S:1:pos:R:3 unique_starting_index=90 config_type=initial n_minim_iter=19 stress="0.0013767427494695587 -0.005118415801901198 0.003182677663088746 -0.005118415801901198 0.014747596726659774 -0.010346853383494019 0.003182677663088746 -0.010346853383494019 0.009849585594021892" pbc="T T T"
Si       7.47235675       3.65807074       7.81612679
Si      -3.56337091       1.96623369       4.79163895
Si       5.92959500       8.31779552       5.41107038
Si      -2.79224664       2.02398977       4.11245728
Si       2.09729279       7.29475423      16.86766185
Si     -13.32372424       9.12283492      22.36146886
Si      -2.84581383       2.62396841       5.11096409
Si       1.92579514       8.71897433      15.45718043
Si     -13.94206798      10.47319405      22.24444471
Si       6.46573485       5.69714048       6.36487829
Si       1.28992326       5.43329452       3.38081174
Si       6.00026130       7.83978137       4.60593900
Si       4.69320227       9.47992491       2.92192128
Si       3.61962251       5.67915030      11.23662271
Si      -4.14581800       4.19888292       3.42223936
Si     -14.66893335      10.50736587      22.96136406
Si      -3.88010336       2.38505484       5.65767228
Si       1.86724206       9.20076652      16.27014869
Si      -3.23135719       6.99966936      15.35831029
Si      -8.40612652       5.41011903      14.67781458
Si       1.10726520      10.74941310      13.84820761
Si      11.62699819       2.03025797      -2.50781450
Si       7.44133587       5.89742576       5.93178778
Si       0.53496491       6.69655038       4.83950663
24
Lattice="15.547272575594143 0.9757536012588659 -7.791508298555946 -7.071844101798874 7.136901243339406 6.739255403433345 -8.740927289862203 4.161879170124767 20.073992629988478" Properties=species:S:1:pos:R:3 unique_starting_index=90 config_type=initial n_minim_iter=20 stress="0.0013272251048652406 -0.003334719221253011 0.0013997213144599666 -0.003334719221253011 0.01153657417732521 -0.008220161974572582 0.0013997213144599666 -0.008220161974572582 0.007970678061020317" pbc="T T T"
Si       7.48515681       3.67141128       7.82615739
Si      -3.55622914       1.96449455       4.78579545
Si       5.94078954       8.32624234       5.41586199
Si      -2.78517012       2.01855382       4.10411971
Si       2.11467512       7.29405109      16.86659656
Si     -13.25739021       9.10270164      22.34261562
Si      -2.83971016       2.61578803       5.10249845
Si       1.95461781       8.72359743      15.45917770
Si     -13.89206695      10.45944776      22.21969405
Si       6.48333220       5.71171390       6.37486302
Si       1.29737727       5.43639070       3.37951641
Si       6.00842815       7.84670444       4.61457147
Si       4.69957905       9.48519484       2.92913424
Si       3.64237840       5.68331289      11.23190327
Si      -4.13660171       4.18947533       3.42187021
Si     -14.61812901      10.49245695      22.93431542
Si      -3.87136960       2.37963011       5.65017476
Si       1.89346621       9.20471808      16.27193682
Si      -3.19634254       6.99919834      15.35242649
Si      -8.37535763       5.40381218      14.66511900
Si       1.13710791      10.75318648      13.84651861
Si      11.61169001       2.03893421      -2.48646949
Si       7.45913953       5.90708432       5.94039012
Si       0.54820586       6.69935333       4.84025249
24
Lattice="15.46796510466701 0.9728867174802617 -7.742187554084696 -7.02577724018612 7.149449597189225 6.721284888523805 -8.65454230031816 4.183092148199475 20.03810731740475" Properties=species:S:1:pos:R:3 unique_starting_index=90 config_type=initial n_minim_iter=21 stress="-0.0015081666095637918 -0.0010140135113386633 0.00020084278302005983 -0.0010140135113386633 0.00794548995172549 -0.005204308067950126 0.00020084278302005983 -0.005204308067950126 0.005891763575535389" pbc="T T T"
Si       7.47391148       3.68143449       7.84576910
Si      -3.53569081       1.96368509       4.77181577
Si       5.93554289       8.34480132       5.43268566
Si      -2.76316538       2.02165750       4.08724623
Si       2.14315708       7.31740172      16.86702246
Si     -13.13446755       9.12409831      22.30834589
Si      -2.81431467       2.62313249       5.09296515
Si       1.98768689       8.74615624      15.46017485
Si     -13.77417185      10.48821550      22.16895999
Si       6.48225059       5.73145398       6.39222817
Si       1.29975984       5.44253154       3.37837969
Si       5.99658333       7.86428396       4.63955824
Si       4.69033690       9.50346089       2.95211430
Si       3.66266161       5.70078109      11.22991319
Si      -4.11314073       4.19700943       3.41573885
Si     -14.49794465      10.52165498      22.88127046
Si      -3.84307475       2.38608766       5.63428270
Si       1.92227401       9.22915867      16.27826636
Si      -3.13737700       7.02335199      15.33937662
Si      -8.30022513       5.42444236      14.64050341
Si       1.17326109      10.77637168      13.85209646
Si      11.55262103       2.03713335      -2.44936641
Si       7.45492469       5.92410670       5.95356977
Si       0.55691385       6.71476644       4.84882733
