24
Lattice="15.246588546288905 1.1636403794175751 -7.708428920497388 -6.836496800869072 7.174996801215736 6.690736961108666 -8.455119661296012 4.13123360219775 19.987894148645186" Properties=species:S:1:pos:R:3 unique_starting_index=90 config_type=initial n_minim_iter=1 energy=-4238.936008399585 free_energy=-4238.936008399585 pbc="T T T"
Si       7.41918143       3.83561857       7.82980253
Si      -3.50111591       1.94296304       4.75983728
Si       5.96740304       8.54396319       5.42293882
Si      -2.70010035       2.00070221       4.11065348
Si       2.17558959       7.44661355      16.78094400
Si     -12.96542525       8.77955830      22.51979646
Si      -2.75966966       2.58587094       5.08616346
Si       2.13460318       8.90350803      15.38999173
Si     -13.30865037      10.47096474      22.03307409
Si       6.47354310       5.91348013       6.36762864
Si       1.31067795       5.59750253       3.30283273
Si       5.99665162       8.04929471       4.63181535
Si       4.73371111       9.71590425       2.93457459
Si       3.68740722       5.87586182      11.10663745
Si      -3.97456716       4.23124490       3.46021883
Si     -14.05702740      10.49603962      22.72391803
Si      -3.79362967       2.39283054       5.60588335
Si       1.98062240       9.35984226      16.20007699
Si      -2.96170407       7.10479518      15.34030628
Si      -8.08028102       5.41365358      14.58961000
Si       1.32356587      10.97284605      13.82101992
Si      11.37184634       2.21595509      -2.39897511
Si       7.45519627       6.11106248       5.94034064
Si       0.63400775       6.81871213       4.87673991
24
Lattice="15.246367422784523 1.1635824602499498 -7.708464218704151 -6.836549436545539 7.1751939951951496 6.690551058000403 -8.455005973087788 4.130942742865092 19.987955132590997" Properties=species:S:1:pos:R:3 unique_starting_index=90 config_type=initial n_minim_iter=2 stress="0.000779438783086829 -0.0001922632150442244 0.0003377395066045364 -0.0001922632150442244 0.00077805518394067 -0.0001846002938887623 0.0003377395066045364 -0.0001846002938887623 0.00040770591214121175" pbc="T T T"
Si       7.41906347       3.83534133       7.82982333
Si      -3.50108700       1.94296617       4.75980552
Si       5.96718536       8.54396671       5.42278119
Si      -2.70008820       2.00070023       4.11062960
Si       2.17550105       7.44629471      16.78093867
Si     -12.96535481       8.77946618      22.51971558
Si      -2.75967142       2.58586051       5.08612947
Si       2.13447619       8.90328926      15.38990543
Si     -13.30862099      10.47094899      22.03292834
Si       6.47339524       5.91334396       6.36756167
Si       1.31055840       5.59757096       3.30269828
Si       5.99644488       8.04929054       4.63166054
Si       4.73346581       9.71604578       2.93433110
Si       3.68730973       5.87564549      11.10660869
Si      -3.97459229       4.23137710       3.46010155
Si     -14.05698763      10.49602001      22.72377754
Si      -3.79360599       2.39282462       5.60585729
Si       1.98048257       9.35962525      16.19999172
Si      -2.96173747       7.10462998      15.34025575
Si      -8.08023395       5.41356414      14.58956276
Si       1.32339101      10.97277699      13.82084742
Si      11.37168070       2.21585002      -2.39900224
Si       7.45502309       6.11092230       5.94026964
Si       0.63387969       6.81878886       4.87659479
24
Lattice="15.240785326442362 1.1634201178100414 -7.7095063446205465 -6.8349936148706405 7.1741714777867855 6.68957894596495 -8.453892663104716 4.128300438014532 19.986424700256663" Properties=species:S:1:pos:R:3 unique_starting_index=90 config_type=initial n_minim_iter=3 stress="-0.0011414906440125696 0.0002092215592478936 -0.00028628652594422916 0.0002092215592478936 0.00043479789541015136 -0.0003413465087220096 -0.00028628652594422916 -0.0003413465087220096 3.8687655323027814e-05" pbc="T T T"
Si       7.41472911       3.83321820       7.82779581
Si      -3.50011722       1.94249351       4.75930309
Si       5.96341980       8.54208909       5.42053852
Si      -2.69945784       2.00006327       4.11034875
Si       2.17218349       7.44292690      16.77827864
Si     -12.96299276       8.77669189      22.51774617
Si      -2.75931126       2.58503622       5.08561349
Si       2.13125809       8.89999193      15.38686470
Si     -13.30627109      10.46800299      22.03071039
Si       6.46975304       5.91136827       6.36546536
Si       1.30918519       5.59658562       3.30128442
Si       5.99288589       8.04729387       4.62950271
Si       4.73041813       9.71436709       2.93204539
Si       3.68419582       5.87333630      11.10431500
Si      -3.97346868       4.23087502       3.45952423
Si     -14.05440814      10.49302913      22.72161291
Si      -3.79269852       2.39210986       5.60546648
Si       1.97702934       9.35631412      16.19693672
Si      -2.96262544       7.10195685      15.33821185
Si      -8.07884291       5.41150206      14.58818668
Si       1.32050319      10.96982009      13.81775020
Si      11.36726540       2.21500315      -2.40024998
Si       7.45082802       6.10886545       5.93810841
Si       0.63257585       6.81751067       4.87518125
24
Lattice="15.241370602924746 1.1589871682043216 -7.707916339927145 -6.8373766016132755 7.173151195313361 6.6879767617172154 -8.455108051174054 4.12818782153618 19.98289865368803" Properties=species:S:1:pos:R:3 unique_starting_index=90 config_type=initial n_minim_iter=4 stress="-0.00027971701113483537 -0.000995437059909537 0.0001284086705021983 -0.000995437059909537 -0.0005367372068168524 3.640782266855066e-05 0.0001284086705021983 3.640782266855066e-05 -0.00018076369063268016" pbc="T T T"
Si       7.41389152       3.82916074       7.82658104
Si      -3.50042078       1.94277929       4.75802512
Si       5.96155984       8.53705470       5.41990028
Si      -2.69979651       1.99967882       4.10978228
Si       2.17039115       7.43869878      16.77567168
Si     -12.96569830       8.77663279      22.51352270
Si      -2.76015528       2.58445981       5.08476583
Si       2.12917621       8.89492624      15.38388961
Si     -13.30967008      10.46710459      22.02631452
Si       6.46902238       5.90690984       6.36438943
Si       1.30765032       5.59412049       3.30014091
Si       5.99131785       8.04185348       4.62874919
Si       4.72798450       9.70901745       2.93099483
Si       3.68313707       5.86983192      11.10228911
Si      -3.97446261       4.23034303       3.45857089
Si     -14.05792587      10.49237164      22.71718663
Si      -3.79325539       2.39208377       5.60456345
Si       1.97442700       9.35138313      16.19403894
Si      -2.96438591       7.09926178      15.33561490
Si      -8.08058988       5.41088483      14.58522629
Si       1.31771681      10.96484744      13.81487310
Si      11.36766440       2.21090875      -2.39972468
Si       7.44977086       6.10393493       5.93718626
Si       0.63082278       6.81468219       4.87438229
24
Lattice="15.246180646995166 1.1637780267473867 -7.708202566382093 -6.837448067501265 7.1709482412084675 6.687557929906716 -8.456700756108162 4.124551149256199 19.98265000522046" Properties=species:S:1:pos:R:3 unique_starting_index=90 config_type=initial n_minim_iter=5 stress="0.00038173855938594003 0.00015441436288026166 -0.00013827354950503892 0.00015441436288026166 0.00010573886367560415 6.4934197937115e-05 -0.00013827354950503892 6.4934197937115e-05 0.00031348868084362183" pbc="T T T"
Si       7.41644007       3.83055814       7.82611963
Si      -3.50065997       1.94166344       4.75761630
Si       5.96555816       8.53862893       5.41962898
Si      -2.69969732       1.99849985       4.10984280
Si       2.17246977       7.43811076      16.77542033
Si     -12.96721531       8.77233321      22.51309802
Si      -2.76027913       2.58336156       5.08479417
Si       2.13186988       8.89436698      15.38290439
Si     -13.31093194      10.46237764      22.02565334
Si       6.47262506       5.90824329       6.36383890
Si       1.30939209       5.59454436       3.29927455
Si       5.99524692       8.04305909       4.62821922
Si       4.73188689       9.71001892       2.92996577
Si       3.68566033       5.87054818      11.10160235
Si      -3.97420211       4.22920352       3.45821483
Si     -14.05949588      10.48743432      22.71664350
Si      -3.79353149       2.39076738       5.60461838
Si       1.97687766       9.35104619      16.19320002
Si      -2.96348844       7.09737256      15.33531998
Si      -8.08163380       5.40762632      14.58474438
Si       1.32075516      10.96456212      13.81381817
Si      11.37187981       2.21409639      -2.40014611
Si       7.45349486       6.10552944       5.93660671
Si       0.63285008       6.81481439       4.87419144
24
Lattice="15.242728934346205 1.1665600808908632 -7.700303245563676 -6.834277989489985 7.168726071384657 6.680985376434133 -8.449836101783125 4.119796527885508 19.969749989167443" Properties=species:S:1:pos:R:3 unique_starting_index=90 config_type=initial n_minim_iter=6 stress="5.69911500320479e-05 0.00035692394888227916 0.0005661598669082903 0.00035692394888227916 4.943442568632135e-05 -0.00018878458699812293 0.0005661598669082903 -0.00018878458699812293 -0.00022353887124484706" pbc="T T T"
Si       7.41776344       3.82905139       7.82371937
Si      -3.49855223       1.94024990       4.75357075
Si       5.96741804       8.53785949       5.41762385
Si      -2.69739625       1.99709821       4.10673422
Si       2.17725236       7.43502161      16.76680791
Si     -12.95857080       8.76770314      22.49700823
Si      -2.75820770       2.58230505       5.08145123
Si       2.13690543       8.89079324      15.37442594
Si     -13.30243554      10.45672744      22.00924392
Si       6.47452096       5.90700048       6.36139767
Si       1.31044989       5.59412198       3.29607804
Si       5.99663298       8.04239244       4.62638165
Si       4.73305285       9.70871609       2.92764658
Si       3.68909673       5.86915545      11.09578972
Si      -3.97287199       4.22783604       3.45453802
Si     -14.05100978      10.48170060      22.69972739
Si      -3.79103923       2.38948441       5.60050674
Si       1.98214737       9.34735505      16.18384374
Si      -2.95814819       7.09351231      15.32614753
Si      -8.07622717       5.40390694      14.57418566
Si       1.32534621      10.96128761      13.80541065
Si      11.37096331       2.21515858      -2.39642140
Si       7.45516576       6.10448091       5.93442433
Si       0.63488229       6.81391975       4.87136062
24
Lattice="15.24437805266341 1.1616183681593486 -7.70314202478068 -6.838506853303435 7.17055593265603 6.681423603742073 -8.457402220284294 4.1224114914386405 19.966997867065807" Properties=species:S:1:pos:R:3 unique_starting_index=90 config_type=initial n_minim_iter=7 stress="0.00012100078913986885 -0.00021481778307729193 -0.00022154847778277375 -0.00021481778307729193 0.0009714825220104747 0.0005491469924222557 -0.00022154847778277375 0.0005491469924222557 -0.0007393810188376338" pbc="T T T"
Si       7.41298593       3.82585766       7.81930937
Si      -3.50039312       1.94096638       4.75300939
Si       5.96283441       8.53582008       5.41489884
Si      -2.69833833       1.99758316       4.10628386
Si       2.16873409       7.43395640      16.76223518
Si     -12.96776269       8.77313742      22.49544754
Si      -2.76044737       2.58364969       5.08151827
Si       2.12908380       8.88955262      15.36917275
Si     -13.31239892      10.46060043      22.00769560
Si       6.47032705       5.90421402       6.35739088
Si       1.30712370       5.59398704       3.29335077
Si       5.99251709       8.03996073       4.62354185
Si       4.72872536       9.70572233       2.92479056
Si       3.68353584       5.86878432      11.09091855
Si      -3.97595249       4.22849192       3.45485976
Si     -14.06185185      10.48604120      22.69836567
Si      -3.79312623       2.39098053       5.60039392
Si       1.97381990       9.34630259      16.17844092
Si      -2.96527581       7.09364967      15.32363708
Si      -8.08243525       5.40642134      14.57278855
Si       1.31709926      10.95986224      13.80143023
Si      11.37112262       2.21137501      -2.40001501
Si       7.45121917       6.10141744       5.92975099
Si       0.63121255       6.81385220       4.87086873
24
Lattice="15.244270088995087 1.162187430116884 -7.705828479257772 -6.839013920505995 7.16622395819384 6.6814730747640185 -8.45835810204036 4.11626857861377 19.970722454418183" Properties=species:S:1:pos:R:3 unique_starting_index=90 config_type=initial n_minim_iter=8 stress="-6.553345003081325e-06 -5.3119400337962987e-05 3.7389804813668537e-06 -5.3119400337962987e-05 -0.00014691062209081128 1.599814499488069e-05 3.7389804813668537e-06 1.599814499488069e-05 0.00041207919124506024" pbc="T T T"
Si       7.41190049       3.82161259       7.81979956
Si      -3.50054898       1.93900262       4.75356567
Si       5.96202590       8.53065802       5.41400953
Si      -2.69821802       1.99584102       4.10666127
Si       2.16722370       7.42655106      16.76431021
Si     -12.96866077       8.76541971      22.49901675
Si      -2.76068874       2.58175500       5.08237624
Si       2.12785485       8.88176023      15.36998447
Si     -13.31363420      10.45145871      22.01066345
Si       6.46946839       5.89958065       6.35692111
Si       1.30639624       5.59102901       3.29189107
Si       5.99180654       8.03507283       4.62245937
Si       4.72786802       9.70021717       2.92256795
Si       3.68261586       5.86394052      11.09136497
Si      -3.97648912       4.22582088       3.45480790
Si     -14.06338788      10.47679064      22.70155932
Si      -3.79322017       2.38893894       5.60126822
Si       1.97250590       9.33821162      16.17958165
Si      -2.96630001       7.08676998      15.32576537
Si      -8.08315847       5.40103539      14.57506886
Si       1.31567391      10.95153638      13.80182449
Si      11.37096317       2.21045773      -2.40193052
Si       7.45048532       6.09679159       5.92884978
Si       0.63066255       6.80996068       4.87078419
24
Lattice="15.247085506003662 1.1652635356137497 -7.7053658324675185 -6.8410035891417476 7.15924721841806 6.675716651332175 -8.462280007817919 4.103614424710578 19.961294939853687" Properties=species:S:1:pos:R:3 unique_starting_index=90 config_type=initial n_minim_iter=9 stress="0.0001131146022982344 2.861290832835784e-05 -0.0001257018867591646 2.861290832835784e-05 4.5126474325227344e-05 -0.00015611797640131887 -0.0001257018867591646 -0.00015611797640131887 -0.00018067871145795544" pbc="T T T"
Si       7.41099420       3.81441039       7.81355377
Si      -3.50149990       1.93516334       4.75061089
Si       5.96144943       8.52389691       5.40640767
Si      -2.69885720       1.99300060       4.10374230
Si       2.16453731       7.41328602      16.75346585
Si     -12.97240549       8.75101488      22.48722488
Si      -2.76173666       2.57866720       5.07966209
Si       2.12575749       8.86716386      15.35820328
Si     -13.31890635      10.43441216      21.99802077
Si       6.46883119       5.89226386       6.34979992
Si       1.30511029       5.58735119       3.28500586
Si       5.99215164       8.02826844       4.61567637
Si       4.72751190       9.69287261       2.91473006
Si       3.68139045       5.85641430      11.08187065
Si      -3.97763194       4.22147621       3.45186724
Si     -14.06941275      10.45947633      22.68855520
Si      -3.79399869       2.38509218       5.59797067
Si       1.97004900       9.32502860      16.16785632
Si      -2.96906158       7.07404142      15.31707168
Si      -8.08604084       5.39063063      14.56741278
Si       1.31290698      10.93789544      13.79040005
Si      11.37289314       2.21051276      -2.40443202
Si       7.45051526       6.08965382       5.92118867
Si       0.63001824       6.80456411       4.86652645
24
Lattice="15.24448878769518 1.1631980998497733 -7.702736061668966 -6.840536384874329 7.157306771435971 6.673684748660123 -8.459083717504326 4.101689831062421 19.95876610310258" Properties=species:S:1:pos:R:3 unique_starting_index=90 config_type=initial n_minim_iter=10 stress="-0.00013308582571621767 -0.00011482793881231076 0.00020238814392502764 -0.00011482793881231076 0.00016559864652135588 0.0002737139891299286 0.00020238814392502764 0.0002737139891299286 0.00018383142217075668" pbc="T T T"
Si       7.41060030       3.81032906       7.81404710
Si      -3.50012825       1.93434635       4.74941645
Si       5.96018550       8.52029737       5.40665910
Si      -2.69853765       1.99259719       4.10270738
Si       2.16591190       7.40851260      16.75281253
Si     -12.96722857       8.74901401      22.48429835
Si      -2.76111544       2.57850939       5.07911748
Si       2.12588319       8.86173850      15.35655625
Si     -13.31662566      10.43053974      21.99480686
Si       6.46828201       5.88805579       6.34960450
Si       1.30361327       5.58622209       3.28179322
Si       5.99153288       8.02450365       4.61527972
Si       4.72631161       9.68756446       2.91392204
Si       3.68210479       5.85470338      11.07989722
Si      -3.97738474       4.22046160       3.45078827
Si     -14.06730311      10.45620963      22.68470996
Si      -3.79268397       2.38470586       5.59663765
Si       1.97105077       9.32007166      16.16736161
Si      -2.96757130       7.06951709      15.31679052
Si      -8.08360325       5.38861640      14.56521033
Si       1.31246565      10.93186747      13.78966080
Si      11.37198189       2.20815626      -2.40327664
Si       7.44998521       6.08493194       5.92125852
Si       0.62997412       6.80252982       4.86770483
24
Lattice="15.250067347978096 1.1683458589410018 -7.703754911707859 -6.8440692566506 7.147389321097968 6.666240290587164 -8.466910373434443 4.083365081041102 19.946521356919654" Properties=species:S:1:pos:R:3 unique_starting_index=90 config_type=initial n_minim_iter=11 stress="-0.00011366350676333412 4.657490463079775e-05 0.00015057430893417474 4.657490463079775e-05 5.571700323774535e-06 -0.00023032099907884806 0.00015057430893417474 -0.00023032099907884806 -0.0007900507355720107" pbc="T T T"
Si       7.40951380       3.80011770       7.80452162
Si      -3.50155063       1.92960738       4.74556644
Si       5.95988923       8.51015192       5.39584049
Si      -2.70083068       1.98838181       4.09929713
Si       2.16180391       7.38981697      16.73676998
Si     -12.97413376       8.72678938      22.46953981
Si      -2.76319539       2.57376136       5.07514550
Si       2.12045419       8.84344567      15.34063351
Si     -13.32741810      10.40611001      21.97878977
Si       6.46773536       5.87854467       6.33883372
Si       1.30122811       5.58197098       3.27098224
Si       5.99250568       8.01526873       4.60414678
Si       4.72691288       9.67754748       2.90267467
Si       3.67977997       5.84487206      11.06524998
Si      -3.97961323       4.21526175       3.44663574
Si     -14.07844400      10.43156203      22.66815523
Si      -3.79471142       2.37923135       5.59233903
Si       1.96672250       9.30107934      16.15031071
Si      -2.97301858       7.05098242      15.30550489
Si      -8.08958054       5.37370026      14.55464559
Si       1.30750642      10.91266027      13.77319363
Si      11.37560226       2.20857998      -2.40781333
Si       7.44952950       6.07499730       5.91080157
Si       0.62911104       6.79532212       4.86216933
24
Lattice="15.259856334760208 1.1681204911118404 -7.7203952863901755 -6.851836272659172 7.1410437774699425 6.673254862901876 -8.483086642358067 4.073811391811149 19.967090292052937" Properties=species:S:1:pos:R:3 unique_starting_index=90 config_type=initial n_minim_iter=12 stress="-0.0001389080904522 -3.599737470927889e-05 -0.00033835262386337024 -3.599737470927889e-05 0.00016163675465120277 -3.6652053835346324e-05 -0.00033835262386337024 -3.6652053835346324e-05 0.0003883377521425327" pbc="T T T"
Si       7.40610176       3.79151724       7.80504689
Si      -3.50520291       1.92716439       4.75056061
Si       5.95660076       8.50110349       5.39335699
Si      -2.70489369       1.98578279       4.10333129
Si       2.15150572       7.37724070      16.74603232
Si     -12.99186595       8.71518166      22.49436011
Si      -2.76750636       2.57124411       5.08043130
Si       2.10887766       8.82997583      15.35010317
Si     -13.34925557      10.39229590      22.00241767
Si       6.46495981       5.87033596       6.33720379
Si       1.29664869       5.57916105       3.26590326
Si       5.99131215       8.00679313       4.60042723
Si       4.72560210       9.66779008       2.89752071
Si       3.67329014       5.83888548      11.06679191
Si      -3.98435099       4.21147222       3.45075789
Si     -14.10049945      10.41750793      22.69278887
Si      -3.79949480       2.37640556       5.59859437
Si       1.95567890       9.28813117      16.15905816
Si      -2.98514873       7.03824600      15.32008326
Si      -8.10243390       5.36561882      14.56945237
Si       1.29623720      10.89838118      13.77939312
Si      11.38176540       2.20562657      -2.41828755
Si       7.44674172       6.06597885       5.90867721
Si       0.62571278       6.78988149       4.86627208
24
Lattice="15.265894080402589 1.167180266956285 -7.720984148566315 -6.856003512989464 7.132194867519984 6.67041769700937 -8.486881819357135 4.062614012171512 19.966546865767246" Properties=species:S:1:pos:R:3 unique_starting_index=90 config_type=initial n_minim_iter=13 stress="-0.00014395823023556574 -0.00012689943251125677 0.00036646494996422967 -0.00012689943251125677 -0.0003253130122932406 -3.069361309139685e-05 0.00036646494996422967 -3.069361309139685e-05 -3.653257888263324e-05" pbc="T T T"
Si       7.40880979       3.78141533       7.80388084
Si      -3.50604492       1.92353845       4.75018297
Si       5.95715474       8.48846938       5.38971351
Si      -2.70609020       1.98188110       4.10279858
Si       2.15273462       7.36071780      16.74389507
Si     -12.99706056       8.70069077      22.49281804
Si      -2.76852436       2.56751397       5.08005651
Si       2.10751630       8.81356939      15.34821970
Si     -13.35851380      10.37476872      22.00027728
Si       6.46687979       5.85966005       6.33495196
Si       1.29385358       5.57472648       3.25867383
Si       5.99379032       7.99500450       4.59736197
Si       4.72643812       9.65445723       2.89336552
Si       3.67439433       5.83075067      11.06165437
Si      -3.98748645       4.20612581       3.44978923
Si     -14.10870825      10.39971090      22.69015030
Si      -3.80090028       2.37260977       5.59778648
Si       1.95531314       9.27220430      16.15657466
Si      -2.98757229       7.02246073      15.32104206
Si      -8.10659638       5.35561039      14.56740176
Si       1.29396428      10.87958777      13.77547801
Si      11.38729129       2.20165907      -2.41955450
Si       7.44807479       6.05455050       5.90703073
Si       0.62558331       6.78186081       4.86706207
24
Lattice="15.283217419991118 1.1697141132678872 -7.736705225843009 -6.867863299295364 7.120159509478427 6.671794125170971 -8.51049542176333 4.0428626292662635 19.975267688213787" Properties=species:S:1:pos:R:3 unique_starting_index=90 config_type=initial n_minim_iter=14 stress="7.099534922591627e-05 2.8436681101545864e-05 -0.00016571470870766592 2.8436681101545864e-05 -0.00013532432369383506 -0.000237239307669301 -0.00016571470870766592 -0.000237239307669301 -0.00014767921355541002" pbc="T T T"
Si       7.40719759       3.76794360       7.79538183
Si      -3.51184893       1.91769284       4.75320481
Si       5.95498617       8.47285176       5.37800070
Si      -2.71108962       1.97541890       4.10496271
Si       2.14119687       7.33689561      16.73953697
Si     -13.02560324       8.67746867      22.50339386
Si      -2.77440450       2.56201319       5.08211281
Si       2.09378282       8.78976862      15.34360869
Si     -13.39253400      10.34757753      22.01016225
Si       6.46532951       5.84547781       6.32596838
Si       1.28671947       5.57143940       3.24482476
Si       5.99515933       7.98056419       4.58645417
Si       4.72690486       9.63912014       2.88195256
Si       3.66738663       5.82060309      11.04995813
Si      -3.99495650       4.19954122       3.45127229
Si     -14.14159194      10.37287694      22.69971222
Si      -3.80804195       2.36680196       5.59986213
Si       1.94221589       9.24782019      16.15361467
Si      -3.00415070       6.99807857      15.32683522
Si      -8.12592453       5.33961544      14.57250073
Si       1.28014053      10.85338193      13.76822462
Si      11.39892119       2.19850014      -2.43279067
Si       7.44592017       6.04013899       5.89758713
Si       0.62228855       6.77229599       4.86777015
24
Lattice="15.286102390401114 1.1673016893580141 -7.746523450287681 -6.872624677847051 7.111945104821507 6.674462631239805 -8.518923409943861 4.032284282844482 19.986916913951408" Properties=species:S:1:pos:R:3 unique_starting_index=90 config_type=initial n_minim_iter=15 stress="-0.0007278137711046421 -0.0001043304726709494 0.00023261792138445106 -0.0001043304726709494 6.017737936452936e-06 0.00011217810042604467 0.00023261792138445106 0.00011217810042604467 0.0003594624517983535" pbc="T T T"
Si       7.40397522       3.75747635       7.79428638
Si      -3.51322172       1.91463937       4.75609420
Si       5.95131177       8.45876075       5.37553803
Si      -2.71284683       1.97143920       4.10806497
Si       2.13541685       7.31928469      16.74393659
Si     -13.03608202       8.66443150      22.51689114
Si      -2.77643296       2.55889534       5.08503910
Si       2.08607391       8.77150235      15.34801749
Si     -13.40706843      10.33075552      22.02353745
Si       6.46143665       5.83310977       6.32453249
Si       1.27975529       5.56941128       3.23569465
Si       5.99238715       7.96790839       4.58200131
Si       4.72417316       9.62524816       2.87783859
Si       3.66257365       5.81410377      11.04588711
Si      -3.99835459       4.19516161       3.45317601
Si     -14.15498949      10.35750017      22.71303060
Si      -3.80992852       2.36369367       5.60274522
Si       1.93405524       9.23107476      16.15865655
Si      -3.01175346       6.98083086      15.33782526
Si      -8.13300093       5.33053603      14.58035969
Si       1.27164381      10.83291020      13.76984144
Si      11.40061041       2.19289868      -2.44082137
Si       7.44114134       6.02749260       5.89574013
Si       0.62006423       6.76447462       4.87210398
24
Lattice="15.317418358319943 1.170502320477554 -7.762765756814635 -6.893376681821532 7.087547608448516 6.668626528779683 -8.554253919957556 3.9936647758107746 19.98595669723549" Properties=species:S:1:pos:R:3 unique_starting_index=90 config_type=initial n_minim_iter=16 stress="0.0005690113946707659 -0.0003975134284476322 -0.00029908438337536154 -0.0003975134284476322 -0.0006013440035935374 -0.0007342128390986556 -0.00029908438337536154 -0.0007342128390986556 -0.00027244366437624806" pbc="T T T"
Si       7.40661842       3.73169498       7.77825765
Si      -3.52241681       1.90417283       4.75600013
Si       5.95094490       8.42774467       5.35411747
Si      -2.72158169       1.96080007       4.10878486
Si       2.12164297       7.27121737      16.72664204
Si     -13.08312361       8.61506201      22.51413694
Si      -2.78606564       2.54756753       5.08343594
Si       2.07055812       8.72343488      15.33038428
Si     -13.45950044      10.27509313      22.01964390
Si       6.46162638       5.80354322       6.30761583
Si       1.26859395       5.56063083       3.21166166
Si       5.99454490       7.93760818       4.56026718
Si       4.72603196       9.59397463       2.85736852
Si       3.65569628       5.79019882      11.02061531
Si      -4.01085257       4.18183460       3.45071165
Si     -14.20830723      10.30425884      22.71004418
Si      -3.82059117       2.35151401       5.60169259
Si       1.91637288       9.18200857      16.13933240
Si      -3.03484457       6.93375489      15.33569484
Si      -8.16263929       5.29804726      14.57813846
Si       1.25525293      10.77960783      13.74793767
Si      11.42230662       2.18416433      -2.45844397
Si       7.44280500       5.99767775       5.87774392
Si       0.61580168       6.74265299       4.86758892
24
Lattice="15.325231652074958 1.176133664342613 -7.774879674775672 -6.898830084233412 7.065166921636716 6.666664114438628 -8.563909424738222 3.960540876047071 19.99882207249071" Properties=species:S:1:pos:R:3 unique_starting_index=90 config_type=initial n_minim_iter=17 stress="-0.00025047393452611196 -0.0001782850597705911 0.0005805953931732698 -0.0001782850597705911 0.00020456074740177128 -0.00041317759475616574 0.0005805953931732698 -0.00041317759475616574 0.0004244774168888951" pbc="T T T"
Si       7.40830718       3.71079807       7.77573126
Si      -3.52254074       1.89533141       4.75880135
Si       5.94982683       8.40302007       5.34471031
Si      -2.72357452       1.95210615       4.11240747
Si       2.12045953       7.23162302      16.72836330
Si     -13.09656981       8.57194279      22.52685820
Si      -2.78778576       2.53985694       5.08601772
Si       2.06624897       8.68286925      15.33118411
Si     -13.47880740      10.22548041      22.03184389
Si       6.45986155       5.77909793       6.30280234
Si       1.25592338       5.56040853       3.18735402
Si       5.99670310       7.90940401       4.55079064
Si       4.72792375       9.56598470       2.84590194
Si       3.65468437       5.77765940      11.00492449
Si      -4.01466856       4.16986994       3.45153034
Si     -14.22581356      10.25753001      22.72432579
Si      -3.82084977       2.34175384       5.60420540
Si       1.91090657       9.14094813      16.13904113
Si      -3.04053624       6.88971941      15.35254401
Si      -8.17044561       5.26998379      14.58585214
Si       1.25040685      10.73244135      13.74290451
Si      11.42915031       2.17818865      -2.47145967
Si       7.44072383       5.97250781       5.87273577
Si       0.61788542       6.72522565       4.87406450
24
Lattice="15.353385650979765 1.1781779658664733 -7.8031988678650945 -6.922605839848893 7.030532355854121 6.662056404563617 -8.607180773210157 3.905814248039783 20.00819083192968" Properties=species:S:1:pos:R:3 unique_starting_index=90 config_type=initial n_minim_iter=18 stress="2.6260464754902666e-05 -0.000573093801790402 0.0005716092453271002 -0.000573093801790402 0.000497809457073914 -0.0007633074647122497 0.0005716092453271002 -0.0007633074647122497 0.0005273405625662808" pbc="T T T"
Si       7.40406970       3.67082442       7.75628769
Si      -3.53156273       1.87905155       4.76263206
Si       5.94214149       8.35452565       5.31501912
Si      -2.73254159       1.93826102       4.11479034
Si       2.09583158       7.16117085      16.71130112
Si     -13.15259257       8.49899034      22.53718300
Si      -2.79880325       2.52788639       5.08824204
Si       2.03941753       8.60942142      15.31102096
Si     -13.54556532      10.14696316      22.04002529
Si       6.45150099       5.73512334       6.28075953
Si       1.23075948       5.55635165       3.14561830
Si       5.99034577       7.86200187       4.52469488
Si       4.72461228       9.51592990       2.81644870
Si       3.63975851       5.74906143      10.96601009
Si      -4.02803455       4.15290743       3.45232930
Si     -14.28980041      10.18117968      22.73680839
Si      -3.83227909       2.32754053       5.60658368
Si       1.88039937       9.06827430      16.11821560
Si      -3.07049413       6.81698670      15.36437505
Si      -8.20690365       5.22444943      14.58986273
Si       1.22178329      10.65391672      13.71647514
Si      11.44746196       2.16223596      -2.50236732
Si       7.43236630       5.92467148       5.85057349
Si       0.61179793       6.69341027       4.87454697
24
Lattice="15.379305625289222 1.1821397662844109 -7.817974659042857 -6.940600369692171 7.006409840933792 6.654948824367341 -8.639014972508859 3.866927535542365 20.003976383536653" Properties=species:S:1:pos:R:3 unique_starting_index=90 config_type=initial n_minim_iter=19 stress="0.00020323952937127454 -0.0005768574253456921 0.0007421391445115828 -0.0005768574253456921 0.0004837367178917502 -0.0007185039971858828 0.0007421391445115828 -0.0007185039971858828 0.0004487550000301181" pbc="T T T"
Si       7.40550923       3.64490191       7.73892018
Si      -3.54011001       1.86875776       4.76112492
Si       5.94057020       8.32570420       5.29343460
Si      -2.73909558       1.92743694       4.11392358
Si       2.08065672       7.11242362      16.69165505
Si     -13.19391544       8.44524698      22.53234956
Si      -2.80719946       2.51796203       5.08816832
Si       2.02535318       8.56013375      15.28914762
Si     -13.59410370      10.09276642      22.03338676
Si       6.45051055       5.70678114       6.26328975
Si       1.21586233       5.55364020       3.11795006
Si       5.98971873       7.83092706       4.50278029
Si       4.72596055       9.48437301       2.79396669
Si       3.63228389       5.72879218      10.93554205
Si      -4.03926432       4.13968940       3.45173508
Si     -14.33500849      10.12679073      22.73030439
Si      -3.84235847       2.31742574       5.60489648
Si       1.86445944       9.01867242      16.09541718
Si      -3.08946135       6.76838828      15.36319629
Si      -8.23433650       5.19121369      14.58458724
Si       1.20366921      10.60280087      13.69168950
Si      11.46436885       2.15401493      -2.52039640
Si       7.43088248       5.89508818       5.83194840
Si       0.60892007       6.67135299       4.87015268
24
Lattice="15.407354807515933 1.1863749771263177 -7.837452141577795 -6.9600143927456175 6.98709288623818 6.651473877958524 -8.676354787848732 3.8333515963769242 20.004054387305132" Properties=species:S:1:pos:R:3 unique_starting_index=90 config_type=initial n_minim_iter=20 stress="0.0003291671145370153 -0.000539210934430573 0.00046193780149539847 -0.000539210934430573 0.00029484417339972356 -0.0006238826692730105 0.00046193780149539847 -0.0006238826692730105 0.0005532103666248176" pbc="T T T"
Si       7.40577919       3.62177793       7.72157006
Si      -3.54925344       1.85918643       4.76197089
Si       5.93802056       8.30285611       5.27241015
Si      -2.74748881       1.91760208       4.11488849
Si       2.05988921       7.07282725      16.67203544
Si     -13.24229425       8.39973396      22.53341854
Si      -2.81775284       2.50805372       5.08982376
Si       2.00606161       8.51914582      15.26881970
Si     -13.64524466      10.04725852      22.03264905
Si       6.44755144       5.68408514       6.24506331
Si       1.20249116       5.55198985       3.09561669
Si       5.98769486       7.80662246       4.48121369
Si       4.72684081       9.45999819       2.77133924
Si       3.62146060       5.71094452      10.90894779
Si      -4.05091104       4.13072969       3.45141539
Si     -14.38460728      10.08071111      22.72911629
Si      -3.85426707       2.30801184       5.60529945
Si       1.84261887       8.97818511      16.07475262
Si      -3.11184019       6.72873092      15.36228364
Si      -8.26574326       5.16381173      14.58379021
Si       1.18272213      10.56067096      13.67056091
Si      11.48160973       2.14878977      -2.53990836
Si       7.42792734       5.87275442       5.81109971
Si       0.60424290       6.65307559       4.86401099
24
Lattice="15.444188462277488 1.1952527259340457 -7.859251343614495 -6.983372283389774 6.966470672750176 6.645486027732102 -8.724229347908212 3.794524402304704 19.995670375030965" Properties=species:S:1:pos:R:3 unique_starting_index=90 config_type=initial n_minim_iter=21 stress="0.0003976621505179057 -0.00011883979535125685 -1.5285051485253845e-05 -0.00011883979535125685 -0.0002209708923166309 3.417510875321138e-05 -1.5285051485253845e-05 3.417510875321138e-05 3.042876132530063e-05" pbc="T T T"
Si       7.40528942       3.59839826       7.69550188
Si      -3.56152717       1.84883924       4.76082820
Si       5.93756315       8.27991485       5.24444539
Si      -2.75973480       1.90696448       4.11515641
Si       2.03479626       7.03048213      16.63898928
Si     -13.30390276       8.34681373      22.52579824
Si      -2.83249384       2.49713579       5.08993183
Si       1.98252919       8.47740540      15.23623121
Si     -13.70631612       9.99718730      22.02145834
Si       6.44482609       5.66166718       6.21895598
Si       1.18671439       5.55467726       3.06867285
Si       5.98602430       7.78437451       4.45442452
Si       4.73034940       9.43725340       2.74133387
Si       3.60853354       5.69396817      10.87134595
Si      -4.06340771       4.11805354       3.45260752
Si     -14.44661976      10.03073689      22.71763911
Si      -3.86958400       2.29674798       5.60345820
Si       1.81675801       8.93603222      16.04253546
Si      -3.13779808       6.68584713      15.35447983
Si      -8.30496425       5.13351422      14.57829191
Si       1.15854964      10.51734790      13.63881560
Si      11.50485566       2.14694891      -2.56250888
Si       7.42567296       5.85132488       5.78237051
Si       0.59987436       6.63428360       4.85308185
