8
Lattice="7.075616910572394 -1.163061447239756 0.4042254854473974 -2.444897618326513 6.740885863974763 -0.40422548544738435 -2.291939678613535 -2.8083555051203106 5.459093272021273" Properties=species:S:1:pos:R:3 unique_starting_index=38 config_type=initial n_minim_iter=14 energy=-1329.8123821278957 free_energy=-1329.8123821278957 pbc="T T T"
Si       3.37636446       3.20708696       1.27772327
Si       0.23926553       1.10038410       4.18136992
Si      -1.03758534      -0.43761669       4.18136992
Si       2.09951359       1.66908617       1.27772327
Si       0.93199660       0.06518701       4.04922047
Si       2.23139553       3.69755153       1.40987272
Si       1.40678252       2.70428326       1.40987272
Si       0.10738360      -0.92808126       4.04922047
