14
Lattice="5.186848997776797 0.4989616510072221 -0.47086022670104827 1.0285828346907075 6.97181799932893 -0.00182833672907152 -1.0605163883345556 -0.8779782707270868 11.430546884202833" Properties=species:S:1:pos:R:3 unique_starting_index=100 config_type=initial n_minim_iter=13 energy=-2289.9991545493212 free_energy=-2289.9991545493212 pbc="T T T"
Si       5.69439462       5.19982557       1.14866121
Si       0.04031195       1.47616060       2.69889893
Si       6.02842720       5.11747821       3.05806844
Si      -0.59750778      -0.07400317       4.78648623
Si      -0.53947918       1.39297581       9.80919711
Si       5.11460349       5.11664078       8.25895939
Si      -0.87351176       1.47532317       7.89978988
Si       5.75242322       6.66680455       6.17137209
Si       3.35529119       4.34247369       8.05554268
Si       1.79962425       2.25032769       2.90231564
Si       1.66753728       3.51416191       8.82341178
Si       3.48737817       3.07863947       2.13444654
Si       0.51429142       3.48590900      -0.00091417
Si       2.06316630      -0.18950831       5.47984333
