14
Lattice="11.95550428485302 4.095633341418797 1.190752024654078 3.188817623333219 9.176643840692808 -2.2510317766596466 -4.024006477821675 -3.283981672857399 6.431255363892229" Properties=species:S:1:pos:R:3 unique_starting_index=20 config_type=initial n_minim_iter=1 energy=-2453.5672226166157 free_energy=-2453.5672226166157 pbc="T T T"
Si       5.48247489       4.36708930       7.68262866
Si       9.99504288       6.46268551       0.87786272
Si       5.63784054       5.62120621      -2.31165305
Si       1.12527255       3.52561000       4.49311289
Si      10.93890517       7.29366974       4.06072571
Si      11.52679037       6.50199522       3.47276514
Si       0.18141026       2.69462577       1.31024990
Si      -0.40647494       3.48630029       1.89821047
Si       4.99426062       5.70459439      -0.55265930
Si       1.83200657       3.33452155       3.76120496
Si       6.12605481       4.28370111       5.92363492
Si       9.28830886       6.65377396       1.60977066
Si       7.57245238       7.10989838      -0.62546880
Si       3.54786305       2.87839713       5.99644442
14
Lattice="11.833079418039214 4.108927556170849 1.0197042144709203 3.202142172828518 9.160349468365085 -2.230814449591339 -4.068808986806684 -3.2807568988676716 6.323220652816406" Properties=species:S:1:pos:R:3 unique_starting_index=20 config_type=initial n_minim_iter=2 stress="-0.33275217398587775 -0.13557188107840218 -0.14075869379163844 -0.13557188107840218 0.04343144160000616 -0.09535930581997579 -0.14075869379163844 -0.09535930581997579 0.25115166200525924" pbc="T T T"
Si       5.34628810       4.37039501       7.43371517
Si       9.90083015       6.46767231       0.73944242
Si       5.62012450       5.61812511      -2.32160475
Si       1.06558245       3.52084782       4.37266800
Si      10.79796114       7.29855448       3.83271204
Si      11.38471355       6.50975460       3.25251504
Si       0.16845146       2.68996565       1.27939838
Si      -0.41830094       3.47876553       1.85959537
Si       4.96266199       5.70089414      -0.59870100
Si       1.77406920       3.33193599       3.64779039
Si       6.00375061       4.28762599       5.71081142
Si       9.19234341       6.65658413       1.46432003
Si       7.51966193       7.10761430      -0.69815518
Si       3.44675067       2.88090582       5.81026559
14
Lattice="13.02024103258024 4.672084010501175 1.073769434591259 3.9067996505311102 9.08183489098521 -1.6187164061248507 -4.5064375600069715 -3.2349190042926694 5.286481544337431" Properties=species:S:1:pos:R:3 unique_starting_index=20 config_type=initial n_minim_iter=3 stress="0.28037694098757004 0.11480662987348729 -0.14779748183050556 0.11480662987348729 0.08943002948932172 -0.1073412422320529 -0.14779748183050556 -0.1073412422320529 0.3228206558971005" pbc="T T T"
Si       6.10087962       4.78543927       6.53033789
Si      11.06446900       6.88941013       0.89272181
Si       6.31972350       5.73356062      -1.78880332
Si       1.35613412       3.62958977       3.84881277
Si      12.08865347       7.82570755       3.55059118
Si      12.66513257       7.06752689       3.04310889
Si       0.33194965       2.69329234       1.19094339
Si      -0.24452944       3.45147301       1.69842569
Si       5.64280275       5.83365206      -0.33244414
Si       2.10784881       3.46692772       3.20393695
Si       6.77780037       4.68534784       5.07397872
Si      10.31275432       7.05207218       1.53759762
Si       8.48595616       7.34545873      -0.33570525
Si       3.93464696       3.17354116       5.07723982
14
Lattice="13.163134929189216 4.713577195796199 1.3530857945959205 3.936209165397361 8.939074995761219 -1.2485575875778607 -4.409849194463547 -3.099490107549906 4.762154314791654" Properties=species:S:1:pos:R:3 unique_starting_index=20 config_type=initial n_minim_iter=4 stress="0.46809961094910774 0.184582337461655 0.10442892707518048 0.184582337461655 -0.019561361465616704 -0.009318844197919727 0.10442892707518048 -0.009318844197919727 0.17472201940767956" pbc="T T T"
Si       6.35314519       4.89862220       6.28918754
Si      11.20392396       6.88722652       1.18615244
Si       6.33634971       5.65453989      -1.42250502
Si       1.48557094       3.66593556       3.68053008
Si      12.31166379       7.86695225       3.69525503
Si      12.86654060       7.11312466       3.22301117
Si       0.37783111       2.68620984       1.17142750
Si      -0.17704570       3.44003742       1.64367135
Si       5.70429271       5.78414704      -0.09606480
Si       2.21172886       3.49668876       3.07705072
Si       6.98520219       4.76901504       4.96274732
Si      10.47776604       7.05647333       1.78963180
Si       8.56766917       7.29103168       0.00146146
Si       4.12182573       3.26213040       4.86522106
14
Lattice="13.42227309321127 4.7749921924734995 1.3293076239070034 3.951595947323881 9.200925367714069 -1.0914690769981201 -4.507963512982158 -3.100840737097615 4.578367078997916" Properties=species:S:1:pos:R:3 unique_starting_index=20 config_type=initial n_minim_iter=5 stress="0.6377285824288064 0.13275386036701814 0.08484845560512373 0.13275386036701814 0.17065694309691018 0.03283412555894057 0.08484845560512373 0.03283412555894057 0.12979942133413225" pbc="T T T"
Si       6.43446573       5.09598037       6.12092864
Si      11.40596092       7.05031980       1.18588199
Si       6.43143980       5.77909646      -1.30472301
Si       1.45994461       3.82475702       3.63032363
Si      12.52666355       8.07066230       3.64914489
Si      13.07712223       7.27769726       3.18430211
Si       0.33924198       2.80441453       1.16706073
Si      -0.21121670       3.59737957       1.63190352
Si       5.77193245       5.94252618      -0.06807445
Si       2.19291363       3.63969728       2.96177644
Si       7.09397308       4.93255064       4.88428007
Si      10.67299189       7.23537954       1.85442919
Si       8.67259001       7.48211891       0.07006301
Si       4.19331552       3.39295792       4.74614262
14
Lattice="13.551110627053545 5.0359103397096225 1.3174709195231047 4.273531824634559 8.955932363504747 -1.1029468145766461 -4.610007598491721 -3.1408449671353615 4.521606988169681" Properties=species:S:1:pos:R:3 unique_starting_index=20 config_type=initial n_minim_iter=6 stress="0.6120278319551145 0.3398441379558396 0.08982702219354138 0.3398441379558396 -0.09143652265778619 -0.012334599499653523 0.08982702219354138 -0.012334599499653523 0.1574287732289579" pbc="T T T"
Si       6.60130323       5.06891919       6.01229582
Si      11.61669984       7.15922385       1.13346806
Si       6.61333162       5.78207855      -1.27616472
Si       1.59793502       3.69177389       3.60266303
Si      12.82379918       8.13956811       3.60059199
Si      13.29147249       7.41956253       3.15966210
Si       0.39083568       2.71142962       1.13553910
Si      -0.07683764       3.43143520       1.57646899
Si       5.93938475       5.90347094      -0.14131569
Si       2.29390571       3.55610098       2.82626590
Si       7.27525010       4.94752679       4.87744678
Si      10.92072914       7.29489675       1.90986520
Si       8.87872171       7.47049081       0.05545399
Si       4.33591314       3.38050693       4.68067710
14
Lattice="13.728550356976221 4.967743436090236 1.3571787918315188 4.266309977867869 8.918080037024318 -1.02546138712729 -4.625458473218292 -3.105008595255086 4.356301424867866" Properties=species:S:1:pos:R:3 unique_starting_index=20 config_type=initial n_minim_iter=7 stress="0.9701312759800583 0.3443131905959967 0.35826364520572823 0.3443131905959967 -0.11836371362449012 0.03968139064643461 0.35826364520572823 0.03968139064643461 0.23251195136376634" pbc="T T T"
Si       6.68784100       5.00876862       5.85776164
Si      11.71528857       7.10683073       1.16579422
Si       6.68156086       5.77204626      -1.16974281
Si       1.65411329       3.67398415       3.52222461
Si      13.03715510       8.07832290       3.58032296
Si      13.50169088       7.35754993       3.16244207
Si       0.33224676       2.70249198       1.10769587
Si      -0.13228902       3.42326495       1.52557676
Si       5.95357723       5.86959722      -0.14594195
Si       2.35117886       3.56538967       2.71379140
Si       7.41582463       4.91121766       4.83396078
Si      11.01822300       7.21542521       1.97422743
Si       8.95226291       7.41066554       0.12919482
Si       4.41713896       3.37014934       4.55882401
14
Lattice="13.54575915917035 5.160684677941653 1.457346078028635 4.259391825638966 9.141658349721048 -0.9169579157676219 -4.542901674552931 -3.147988284987434 4.301848230541534" Properties=species:S:1:pos:R:3 unique_starting_index=20 config_type=initial n_minim_iter=8 stress="0.7235468842233506 0.3652224118538232 0.2655059300403467 0.3652224118538232 0.0297666971960543 0.12801128971220913 0.2655059300403467 0.12801128971220913 0.18058738983785505" pbc="T T T"
Si       6.64378517       5.18654805       5.91936291
Si      11.53655295       7.35066231       1.29139650
Si       6.61846414       5.96780669      -1.07712651
Si       1.72569636       3.80369243       3.55083989
Si      12.92368169       8.36982312       3.70511285
Si      13.34768323       7.60978739       3.28136274
Si       0.33856762       2.78453162       1.13712355
Si      -0.08543392       3.54456735       1.56087365
Si       5.87807997       6.04299076      -0.11810756
Si       2.36089433       3.70769116       2.71230860
Si       7.38416934       5.11136398       4.96034395
Si      10.90135498       7.44666359       2.12992779
Si       8.87179895       7.63120463       0.26298708
Si       4.39045036       3.52315011       4.57924932
14
Lattice="13.488155394989572 4.788588135486377 1.3999174079862111 4.036410129487526 8.991998707036418 -1.0766905314038024 -4.45853319816721 -3.1340607264688107 4.317559184257061" Properties=species:S:1:pos:R:3 unique_starting_index=20 config_type=initial n_minim_iter=9 stress="0.5119878258231683 0.2227925480620685 0.08783464609787248 0.2227925480620685 -0.07291156044517569 -0.011592089091017665 0.08783464609787248 -0.011592089091017665 0.01669669594960192" pbc="T T T"
Si       6.56397650       4.80629397       5.80242396
Si      11.37878928       7.01277275       1.20078587
Si       6.50205583       5.84023215      -1.16163789
Si       1.68724304       3.63375336       3.44000019
Si      12.78931831       7.91371419       3.55854782
Si      13.22327437       7.15227456       3.16146662
Si       0.27671402       2.73281193       1.08223824
Si      -0.15724204       3.49425156       1.47931945
Si       5.74239753       5.88236036      -0.26859503
Si       2.29358183       3.56619526       2.58758927
Si       7.32363480       4.76416576       4.90938109
Si      10.77245049       7.08033086       2.05319679
Si       8.71177919       7.35818951       0.16549129
Si       4.35425313       3.28833661       4.47529477
14
Lattice="13.208986058887579 4.570923052473165 1.4746012767393 3.7846752215828174 8.97703465701442 -1.0639807244995072 -4.284531205169372 -3.072631158468642 4.306325806023977" Properties=species:S:1:pos:R:3 unique_starting_index=20 config_type=initial n_minim_iter=10 stress="0.21793433526743022 0.14251325999598063 -0.07790394195903963 0.14251325999598063 -0.02056468962144693 -0.01977696168038313 -0.07790394195903963 -0.01977696168038313 -0.061891445403854405" pbc="T T T"
Si       6.44377145       4.69632149       5.88532364
Si      11.05045525       6.81114749       1.28436507
Si       6.26535863       5.77900506      -1.16837728
Si       1.65867483       3.66417906       3.43258129
Si      12.50999077       7.71272741       3.62639258
Si      12.89845604       6.92385552       3.23991600
Si       0.19913931       2.76259914       1.09055378
Si      -0.18932597       3.55147103       1.47703036
Si       5.59862292       5.87676112      -0.33196424
Si       2.28781660       3.58417530       2.54922784
Si       7.11050716       4.59856544       5.04891060
Si      10.42131348       6.89115125       2.16771852
Si       8.38397210       7.21976998       0.23671089
Si       4.32515798       3.25555657       4.48023547
14
Lattice="13.155759370714954 4.443890103167639 1.4823417778782124 3.684306393106188 8.947330038928412 -1.0902425013634884 -4.23404613089778 -3.0538251559797285 4.3067814359435115" Properties=species:S:1:pos:R:3 unique_starting_index=20 config_type=initial n_minim_iter=11 stress="0.24077800676072242 0.08961813748133035 -0.0025945648408188023 0.08961813748133035 0.0007937348031618683 -0.02478230553403288 -0.0025945648408188023 -0.02478230553403288 0.09718304748861911" pbc="T T T"
Si       6.36139116       4.59638922       5.90649305
Si      10.96236717       6.65345783       1.29656251
Si       6.24462848       5.74100577      -1.20761234
Si       1.64365246       3.68393715       3.40231820
Si      12.46071419       7.56030915       3.62070160
Si      12.82263093       6.77107614       3.25436068
Si       0.14530544       2.77708583       1.07817911
Si      -0.21661129       3.56631884       1.44452003
Si       5.60533906       5.88120766      -0.39556096
Si       2.28542016       3.55478993       2.49676936
Si       7.00068058       4.45618732       5.09444167
Si      10.32059947       6.78260506       2.20211135
Si       8.31292638       7.15402961       0.26354030
Si       4.29309325       3.18336537       4.43534042
14
Lattice="13.208946659223209 4.465676273180968 1.4699068156904203 3.68245841650852 9.056945406440876 -1.1148747340643494 -4.242712203362661 -3.1116586029356967 4.285725890202021" Properties=species:S:1:pos:R:3 unique_starting_index=20 config_type=initial n_minim_iter=12 stress="0.3059913229298564 0.04758318215592464 0.0988837687940561 0.04758318215592464 0.05225955138228726 -0.025744836445740923 0.0988837687940561 -0.025744836445740923 0.22636551136668162" pbc="T T T"
Si       6.36507354       4.58770295       5.89933392
Si      10.96223894       6.65200003       1.29578966
Si       6.28361933       5.82326013      -1.25857595
Si       1.68645393       3.75896304       3.34496831
Si      12.52501865       7.60631443       3.58975534
Si      12.89663380       6.78823022       3.24021305
Si       0.12367422       2.80464864       1.05100263
Si      -0.24794092       3.62273286       1.40054492
Si       5.67431484       5.97890581      -0.44298971
Si       2.27952313       3.56879506       2.43985528
Si       6.97437803       4.43205727       5.08374768
Si      10.36916975       6.84216802       2.20090269
Si       8.32338217       7.19903702       0.25479711
Si       4.32531070       3.21192606       4.38596086
14
Lattice="13.195367930794239 4.381172049169246 1.46067924017016 3.618659398387584 9.03632087199399 -1.0735342409656714 -4.2391167562086585 -3.051766433916406 4.272729541399991" Properties=species:S:1:pos:R:3 unique_starting_index=20 config_type=initial n_minim_iter=13 stress="0.033023428939603826 -0.05587530907918579 -0.006670929774326825 -0.05587530907918579 -0.0064197548372070395 -0.003265078482302797 -0.006670929774326825 -0.003265078482302797 0.14927004547370548" pbc="T T T"
Si       6.29927067       4.56685766       5.94231662
Si      10.92639228       6.56635025       1.34343116
Si       6.27563991       5.79886883      -1.28244208
Si       1.64851829       3.79937624       3.31644338
Si      12.51731945       7.55404649       3.60899459
Si      12.85890716       6.72129513       3.24960869
Si       0.05759112       2.81167999       1.05087995
Si      -0.28399659       3.64443136       1.41026585
Si       5.68917339       5.98279853      -0.45457259
Si       2.24549049       3.57520696       2.43176698
Si       6.88573719       4.38292796       5.11444713
Si      10.32942008       6.79051953       2.22810756
Si       8.27051908       7.13713633       0.28167521
Si       4.30439149       3.22859015       4.37819934
14
Lattice="13.249848270758424 4.525811694898777 1.4476171511785378 3.6737902095413846 9.266948882277287 -1.1350473487704544 -4.244470938914474 -3.211817883389209 4.223428924424006" Properties=species:S:1:pos:R:3 unique_starting_index=20 config_type=initial n_minim_iter=14 stress="0.0836240025473262 -0.02596268671370659 0.06334519701873934 -0.02596268671370659 0.016491420719285988 -0.051760898211398065 0.06334519701873934 -0.051760898211398065 0.14716609586056462" pbc="T T T"
Si       6.34269115       4.58795679       5.86008268
Si      10.96751764       6.72416871       1.32871838
Si       6.33647639       5.99298590      -1.32408395
Si       1.71164990       3.85677398       3.20728035
Si      12.61581239       7.72026607       3.53593456
Si      12.92967184       6.89068592       3.19580082
Si       0.06335515       2.86067663       1.00006417
Si      -0.25050430       3.69025677       1.34019790
Si       5.78729215       6.18734324      -0.51686860
Si       2.28978309       3.63592769       2.35973682
Si       6.89187539       4.39359945       5.05286733
Si      10.38938446       6.94501500       2.17626191
Si       8.32076705       7.32839223       0.24350832
Si       4.35840049       3.25255046       4.29249041
14
Lattice="13.299284362802053 4.526466351368188 1.4127755901715708 3.6940541459677854 9.248353093956323 -1.0712425917085542 -4.297411562099642 -3.155581353273904 4.204492680329564" Properties=species:S:1:pos:R:3 unique_starting_index=20 config_type=initial n_minim_iter=15 stress="-0.06565072396862952 -0.03904137303957082 -0.045587456778417565 -0.03904137303957082 -0.04338641845108287 -0.018117830128485484 -0.045587456778417565 -0.018117830128485484 0.04057087462135396" pbc="T T T"
Si       6.30210548       4.64875728       5.87954715
Si      10.98199308       6.70218571       1.34236120
Si       6.39382147       5.97048081      -1.33352147
Si       1.71393387       3.91705238       3.20366448
Si      12.62931692       7.74374777       3.52087394
Si      12.96871861       6.92853743       3.18766110
Si       0.06661003       2.87549033       1.02515174
Si      -0.27279166       3.69070066       1.35836458
Si       5.85961030       6.21776221      -0.52544227
Si       2.28718331       3.66953727       2.36117275
Si       6.83631665       4.40147588       5.07146795
Si      10.40874364       6.94970082       2.18485293
Si       8.36139588       7.31335745       0.26814387
Si       4.33453106       3.30588065       4.27788181
14
Lattice="13.276003344685927 4.575161503131884 1.4047370373005827 3.696496786628624 9.346344723994243 -1.1046891915282808 -4.284087736219247 -3.2213820321715287 4.198003833473457" Properties=species:S:1:pos:R:3 unique_starting_index=20 config_type=initial n_minim_iter=16 stress="-0.25211490249830565 -0.06323432319981856 -0.14327734207691908 -0.06323432319981856 -0.01908035193038003 -0.05505363938010519 -0.14327734207691908 -0.05505363938010519 -0.03516259287391082" pbc="T T T"
Si       6.29616147       4.66915284       5.86409503
Si      10.96772193       6.74471797       1.33533807
Si       6.39225092       6.03097136      -1.36604335
Si       1.72069046       3.95540623       3.16271361
Si      12.61746336       7.81397289       3.48643385
Si      12.96002735       6.99928369       3.16393625
Si       0.07094904       2.88615131       1.01161783
Si      -0.27161495       3.70084050       1.33411543
Si       5.86390218       6.30372116      -0.56694830
Si       2.28318515       3.69432335       2.33670586
Si       6.82451021       4.39640304       5.06499998
Si      10.40522725       7.00580085       2.16134582
Si       8.35933336       7.38771134       0.24946739
Si       4.32907903       3.31241286       4.24858429
14
Lattice="13.37459868040393 4.605263794311507 1.3591507716159954 3.748543189793584 9.365922090743434 -1.1123868734633786 -4.344128952395835 -3.2370986769629697 4.1924712573915714" Properties=species:S:1:pos:R:3 unique_starting_index=20 config_type=initial n_minim_iter=17 stress="-0.14040117792252355 -0.04301241110509105 -0.13084994031703762 -0.04301241110509105 0.004646165094764374 -0.040058402935044875 -0.13084994031703762 -0.040058402935044875 -0.044695820838826464" pbc="T T T"
Si       6.30095869       4.68934354       5.83359991
Si      11.04678216       6.74879251       1.30580340
Si       6.47805423       6.04474366      -1.39436476
Si       1.73223076       3.98529470       3.13343175
Si      12.71255499       7.85858028       3.43531329
Si      13.04723435       7.03448542       3.11148799
Si       0.06645793       2.87550693       1.00392186
Si      -0.26822143       3.69960179       1.32774716
Si       5.93063473       6.34230540      -0.60518287
Si       2.28780646       3.70157126       2.32282091
Si       6.84837819       4.39178180       5.04441802
Si      10.49120646       7.03251594       2.11641424
Si       8.43049701       7.41003295       0.22483391
Si       4.34851590       3.32405426       4.21440124
14
Lattice="13.456861851210336 4.616696012866284 1.3179482722109646 3.789225154217707 9.36725385466166 -1.1391330253003882 -4.3916339217253855 -3.255576743556514 4.200928707858642" Properties=species:S:1:pos:R:3 unique_starting_index=20 config_type=initial n_minim_iter=18 stress="-0.05786376066480372 -0.03584924570837487 -0.07666973530772535 -0.03584924570837487 0.03266342430050422 -0.021658888569511908 -0.07666973530772535 -0.021658888569511908 -0.012020960077807803" pbc="T T T"
Si       6.32605763       4.67452628       5.81421418
Si      11.11495502       6.73728874       1.27515289
Si       6.52839545       6.05384684      -1.43447023
Si       1.73949806       3.99108438       3.10459107
Si      12.79050457       7.87483938       3.38780920
Si      13.12803122       7.03648814       3.06697960
Si       0.06394851       2.85353375       0.99193475
Si      -0.27357814       3.69188498       1.31276436
Si       6.00266703       6.36472180      -0.64923177
Si       2.29175448       3.68709877       2.30803199
Si       6.85178605       4.36365132       5.02897573
Si      10.56269860       7.04127435       2.07171196
Si       8.49177822       7.42248288       0.19658136
Si       4.36267486       3.30589025       4.18316259
14
Lattice="13.516703859966414 4.565024337696558 1.3187968226069988 3.7663321937127776 9.359338254768314 -1.1216156410209477 -4.400325472157367 -3.2360245863804504 4.1658037197328746" Properties=species:S:1:pos:R:3 unique_starting_index=20 config_type=initial n_minim_iter=19 stress="0.07516314274869602 -0.0015117709668978582 0.03759289409660242 -0.0015117709668978582 0.012800325314107307 -6.102422491428869e-05 0.03759289409660242 -6.102422491428869e-05 0.04146750627132419" pbc="T T T"
Si       6.34175681       4.66892398       5.80300498
Si      11.14352990       6.66550791       1.29105094
Si       6.54095377       6.01941402      -1.44002008
Si       1.73918068       4.02283010       3.07193396
Si      12.84369499       7.83619956       3.37776851
Si      13.16033714       6.99800676       3.06237157
Si       0.03901559       2.85213845       0.98521639
Si      -0.27762656       3.69033125       1.30061333
Si       6.03561742       6.36190842      -0.65308013
Si       2.28134298       3.67751860       2.29277287
Si       6.84709316       4.32642959       5.01606503
Si      10.60136760       7.01081941       2.07021203
Si       8.51650280       7.38089638       0.20995696
Si       4.36620778       3.30744163       4.15302794
14
Lattice="13.519276796554855 4.523943482525987 1.3260826424294223 3.744982710164565 9.324183795587823 -1.109822040090723 -4.392395239171148 -3.2125761324808044 4.149482962899675" Properties=species:S:1:pos:R:3 unique_starting_index=20 config_type=initial n_minim_iter=20 stress="0.0804833706213159 -0.002886305264741114 0.04129083688039163 -0.002886305264741114 0.012564429225354421 0.012017379181887446 0.04129083688039163 0.012017379181887446 0.031044808353210555" pbc="T T T"
Si       6.34074567       4.65840098       5.80764205
Si      11.13184230       6.61073210       1.30481358
Si       6.53111860       5.97715017      -1.44189848
Si       1.74002197       4.02481905       3.06092998
Si      12.84244145       7.78846009       3.38150650
Si      13.15455753       6.95817574       3.06993983
Si       0.02942282       2.84709106       0.98423707
Si      -0.28269327       3.67737541       1.29580374
Si       6.02456312       6.33710847      -0.65050196
Si       2.27360909       3.66168598       2.29179749
Si       6.84730115       4.29844268       5.01624552
Si      10.59825518       6.97386517       2.07394607
Si       8.50099777       7.34972159       0.22246593
Si       4.37086649       3.28582955       4.14327764
14
Lattice="13.481417426991047 4.512900449197342 1.346641148835328 3.746376339492322 9.263216938044797 -1.1394722997963709 -4.357601440394622 -3.229533588446152 4.1279021335092025" Properties=species:S:1:pos:R:3 unique_starting_index=20 config_type=initial n_minim_iter=21 stress="0.003655888901367663 0.008738554320825683 -0.012067078092597508 0.008738554320825683 0.014400615416030393 0.01133573953462945 -0.012067078092597508 0.01133573953462945 -0.02032445917141217" pbc="T T T"
Si       6.35683157       4.61980265       5.79636272
Si      11.10993122       6.55938790       1.31218101
Si       6.51336076       5.92678115      -1.46129174
Si       1.76026110       3.98719590       3.02288997
Si      12.82490903       7.74399504       3.37751664
Si      13.12924203       6.89641298       3.06842932
Si       0.04528329       2.80258876       0.95755434
Si      -0.25904970       3.65017082       1.26664166
Si       6.00840553       6.31883303      -0.67749735
Si       2.29103634       3.61266320       2.27376834
Si       6.86178679       4.22775077       5.01256833
Si      10.57915598       6.93392060       2.06130264
Si       8.48847871       7.31316054       0.21688366
Si       4.38171361       3.23342326       4.11818733
