22
Lattice="4.670487772414516 0.5314502360828248 2.5197363644435304 2.762418387480234 6.636441165262233 2.069459755172602 8.558245402032382 0.33318355604534877 32.89816251813023" Properties=species:S:1:pos:R:3 unique_starting_index=40 config_type=initial n_minim_iter=1 energy=-4076.087541721615 free_energy=-4076.087541721615 pbc="T T T"
Si      12.78560462       3.96732356      32.86961483
Si       4.27860244       3.01788228      10.49565054
Si       8.20113165       0.97577391      17.77122583
Si       8.46029726       2.68875750      29.86874391
Si      10.45888005       3.51499137      31.63382256
Si       8.91133380       6.38982490      18.25911907
Si       4.83594822       2.38205955       9.59289258
Si       8.45822852       6.23963160      19.13060797
Si       3.77041491       2.60140463       1.03693128
Si      12.36617129       3.85888045      33.67084796
Si       8.72591905       1.72372468      24.67569161
Si       7.30668751       4.58402224      24.10550314
Si       1.52479287       2.84822950      -0.49741243
Si       5.53347503       0.58653268      17.15468794
Si      10.47241724       2.62463015      31.79722106
Si      11.16128978       6.66214568      19.67484333
Si       6.99464702       3.73373060      10.94952529
Si       8.75059881       7.36081696      18.35119745
Si       4.73398172       3.59829032       9.52082276
Si       7.92492864       0.29482376      18.42789864
Si      12.76623291       2.84073845      33.14272650
Si       6.89000448       2.73426322      11.35515654
22
Lattice="4.670712761363486 0.5314655793079094 2.519853049077979 2.7625669484413797 6.636446244266051 2.069566219003014 8.559295072152565 0.33337129858533476 32.89846694900169" Properties=species:S:1:pos:R:3 unique_starting_index=40 config_type=initial n_minim_iter=2 stress="0.0009197936310340042 0.0003940407817729371 0.00019923320222056605 0.0003940407817729371 0.00023132134202328758 -0.0002313184411491812 0.00019923320222056605 -0.0002313184411491812 0.0008873120912953363" pbc="T T T"
Si      12.78680978       3.96750797      32.87003053
Si       4.27899404       3.01794153      10.49579378
Si       8.20183175       0.97586968      17.77147876
Si       8.46127402       2.68893156      29.86905563
Si      10.45997054       3.51516364      31.63418414
Si       8.91206652       6.38992279      18.25941370
Si       4.83633517       2.38211585       9.59305006
Si       8.45896571       6.23973777      19.13089572
Si       3.77057574       2.60140947       1.03703406
Si      12.36737491       3.85906863      33.67126055
Si       8.72678972       1.72386229      24.67598022
Si       7.30749552       4.58415701      24.10577438
Si       1.52483703       2.84822867      -0.49736287
Si       5.53405870       0.58662813      17.15486916
Si      10.47350923       2.62480492      31.79757984
Si      11.16213559       6.66225616      19.67520438
Si       6.99514334       3.73379037      10.94974485
Si       8.75132922       7.36091323      18.35149637
Si       4.73437511       3.59834062       9.52098120
Si       7.92563380       0.29492856      18.42813140
Si      12.76744390       2.84093025      33.14313894
Si       6.89050940       2.73432652      11.35536809
22
Lattice="4.670850842787557 0.5310368465346289 2.519736362462536 2.76170438798476 6.63559264872712 2.0702714206371016 8.56365070075101 0.3370017316312979 32.888516625548526" Properties=species:S:1:pos:R:3 unique_starting_index=40 config_type=initial n_minim_iter=3 stress="-0.000367804661532623 -0.00031603705340524623 0.0007126755609717714 -0.00031603705340524623 -0.0013441949194945247 -7.522298123214328e-07 0.0007126755609717714 -7.522298123214328e-07 -0.0020931648386767294" pbc="T T T"
Si      12.79057313       3.97001885      32.86105186
Si       4.27986544       3.01862547      10.49304979
Si       8.20413828       0.97688216      17.76688205
Si       8.46472927       2.69213263      29.86077510
Si      10.46356664       3.51769254      31.62545266
Si       8.91327035       6.39055503      18.25530089
Si       4.83697748       2.38269559       9.59097362
Si       8.46038688       6.24074949      19.12644872
Si       3.77023350       2.60070071       1.03759621
Si      12.37108352       3.86175053      33.66212005
Si       8.72974492       1.72594098      24.66906831
Si       7.30995188       4.58625701      24.09931643
Si       1.52423848       2.84780275      -0.49650563
Si       5.53613159       0.58818840      17.14971092
Si      10.47716497       2.62749056      31.78872101
Si      11.16343731       6.66289463      19.67139294
Si       6.99572722       3.73392242      10.94777676
Si       8.75244163       7.36142528      18.34757580
Si       4.73532501       3.59860243       9.51894879
Si       7.92817411       0.29637712      18.42260729
Si      12.77146218       2.84382627      33.13400741
Si       6.89147891       2.73465670      11.35302772
22
Lattice="4.6705679719002475 0.5313097035614133 2.520095300873531 2.76089381849653 6.638343178236989 2.0718970612578 8.559029028432402 0.342600825987138 32.89966393112261" Properties=species:S:1:pos:R:3 unique_starting_index=40 config_type=initial n_minim_iter=4 stress="-0.00014956666278666096 -0.00024591504043859657 -0.00022067661906981066 -0.00024591504043859657 0.0008852961143342574 0.0003109373654476481 -0.00022067661906981066 0.0003109373654476481 7.73589163277942e-05" pbc="T T T"
Si      12.78598757       3.97670089      32.87188919
Si       4.27817321       3.02160932      10.49650041
Si       8.20195667       0.97951117      17.77267285
Si       8.46019668       2.69863769      29.87161303
Si      10.45897275       3.52371234      31.63644687
Si       8.91017909       6.39567794      18.26175837
Si       4.83512588       2.38529224       9.59458803
Si       8.45719304       6.24627605      19.13346880
Si       3.76999653       2.60159373       1.03792728
Si      12.36604229       3.86845193      33.67369557
Si       8.72621162       1.73029388      24.67734602
Si       7.30621273       4.59213420      24.10818188
Si       1.52404329       2.84903787      -0.49623627
Si       5.53358399       0.59097117      17.15520577
Si      10.47235171       2.63320484      31.79986343
Si      11.16010284       6.66842259      19.67876191
Si       6.99370311       3.73685695      10.95196095
Si       8.74937140       7.36685778      18.35448497
Si       4.73436831       3.60134048       9.52244769
Si       7.92592419       0.29908866      18.42780604
Si      12.76685157       2.85032309      33.14501418
Si       6.88975079       2.73724600      11.35704843
22
Lattice="4.6704151480709095 0.5314184276633714 2.520497234210245 2.7614107634594807 6.636314575164465 2.0718156555462985 8.556827045405875 0.3408090253986989 32.90886639272019" Properties=species:S:1:pos:R:3 unique_starting_index=40 config_type=initial n_minim_iter=5 stress="-5.403711188756851e-05 0.0006652392337757623 -0.0004860614739407488 0.0006652392337757623 -0.002032272994326838 -0.00039149608914495495 -0.0004860614739407488 -0.00039149608914495495 0.0009135808479560633" pbc="T T T"
Si      12.78422584       3.97446907      32.88037284
Si       4.27773185       3.02060535      10.49845182
Si       8.20084501       0.97843139      17.77708649
Si       8.45832303       2.69714527      29.87996092
Si      10.45744152       3.52039339      31.64483416
Si       8.90964027       6.39311385      18.26586742
Si       4.83410118       2.38471478       9.59746672
Si       8.45651384       6.24393803      19.13794620
Si       3.77023357       2.60100003       1.03757247
Si      12.36417026       3.86574610      33.68236046
Si       8.72466597       1.72832245      24.68398422
Si       7.30503232       4.58981240      24.11457161
Si       1.52433565       2.84862548      -0.49678842
Si       5.53251463       0.58967225      17.15962550
Si      10.47023009       2.63066768      31.80930692
Si      11.15910213       6.66583173      19.68345369
Si       6.99292567       3.73556910      10.95522394
Si       8.74913796       7.36359028      18.35879510
Si       4.73505074       3.59984499       9.52449677
Si       7.92464452       0.29790397      18.43219069
Si      12.76464750       2.84835883      33.15403785
Si       6.88913348       2.73612872      11.36014821
22
Lattice="4.670279622671668 0.5310058012476158 2.5208355580716146 2.7601102916293017 6.639873601222204 2.0725180271903287 8.559743959140173 0.34213455048642794 32.907082488976876" Properties=species:S:1:pos:R:3 unique_starting_index=40 config_type=initial n_minim_iter=6 stress="-0.0001323805858246165 0.00015747181435558534 0.00013578269460465218 0.00015747181435558534 0.0011610239959500153 -0.0007099401757517936 0.00013578269460465218 -0.0007099401757517936 -0.0007268138931343695" pbc="T T T"
Si      12.78609651       3.97773755      32.87954242
Si       4.27791980       3.02300942      10.49742798
Si       8.20196973       0.97882176      17.77609278
Si       8.46039006       2.70055617      29.87890610
Si      10.45985172       3.52213795      31.64341474
Si       8.90989962       6.39657807      18.26562114
Si       4.83352563       2.38656733       9.59819914
Si       8.45680559       6.24784579      19.13740653
Si       3.76966095       2.60169725       1.03781556
Si      12.36643563       3.86835934      33.68069150
Si       8.72635283       1.72914961      24.68306111
Si       7.30621954       4.59358385      24.11384224
Si       1.52351893       2.85049739      -0.49652922
Si       5.53396333       0.59005697      17.15841151
Si      10.47213514       2.63241724      31.80929984
Si      11.15893851       6.66893656      19.68349207
Si       6.99243573       3.73744516      10.95654333
Si       8.74940920       7.36735066      18.35886174
Si       4.73638969       3.60178465       9.52417530
Si       7.92592041       0.29741185      18.43103412
Si      12.76658354       2.85061752      33.15318805
Si       6.88917068       2.73723593      11.36071256
22
Lattice="4.669542400870522 0.5307319580774413 2.5223030065174963 2.756915610153446 6.6384889185076466 2.0784073643810066 8.55778687208984 0.3630141519216615 32.92292536639955" Properties=species:S:1:pos:R:3 unique_starting_index=40 config_type=initial n_minim_iter=7 stress="-0.0003913296533393791 -0.0004504695579865954 0.00014422693937815356 -0.0004504695579865954 -0.00021879749594753089 0.000722551705983171 0.00014422693937815356 0.000722551705983171 0.0006229892128482087" pbc="T T T"
Si      12.78213439       3.99706451      32.89856496
Si       4.27575407       3.02928129      10.50356991
Si       8.20037532       0.98840708      17.78446622
Si       8.45755420       2.71955187      29.89569020
Si      10.45705464       3.53914141      31.66021442
Si       8.90587696       6.40439335      18.27850236
Si       4.83065246       2.39177097       9.60578477
Si       8.45253760       6.25685253      19.15017194
Si       3.76801892       2.60003822       1.04004979
Si      12.36300786       3.88680244      33.69886935
Si       8.72391944       1.74249159      24.69609521
Si       7.30279883       4.60800262      24.12882792
Si       1.52188858       2.84982954      -0.49484492
Si       5.53258195       0.60001372      17.16628698
Si      10.46819322       2.65032385      31.82788505
Si      11.15473894       6.67650519      19.69709856
Si       6.98935770       3.74187463      10.96638496
Si       8.74502852       7.37470589      18.37264971
Si       4.73595869       3.60592074       9.53053988
Si       7.92438026       0.30694190      18.43975135
Si      12.76332967       2.86955725      33.17084617
Si       6.88655094       2.74189536      11.36868038
22
Lattice="4.67016945902798 0.5307647468445421 2.521085615645548 2.7572729144978947 6.638363115083617 2.077545579374608 8.554571952505801 0.36296419742159103 32.91513459518323" Properties=species:S:1:pos:R:3 unique_starting_index=40 config_type=initial n_minim_iter=8 stress="0.0022453901644814965 0.0004826015124059034 -0.0017597033533419048 0.0004826015124059034 -5.8029731986326115e-05 0.0002730551932773214 -0.0017597033533419048 0.0002730551932773214 -0.0017680120094157423" pbc="T T T"
Si      12.78008366       3.99806017      32.89022730
Si       4.27489242       3.03041625      10.50024152
Si       8.19983359       0.98820161      17.77915670
Si       8.45496056       2.72041496      29.88919583
Si      10.45558981       3.53846743      31.65133124
Si       8.90531439       6.40373642      18.27308065
Si       4.82943314       2.39214916       9.60457684
Si       8.45120822       6.25617530      19.14417578
Si       3.76824743       2.59962244       1.03915514
Si      12.36052961       3.88607051      33.69015528
Si       8.72183285       1.74152618      24.69014657
Si       7.30070324       4.60858844      24.12309724
Si       1.52223328       2.85104615      -0.49510104
Si       5.53084711       0.59987119      17.16150009
Si      10.46472533       2.64964468      31.82165055
Si      11.15467121       6.67611567      19.69100628
Si       6.98902622       3.74227223      10.96509022
Si       8.74415109       7.37405196      18.36711706
Si       4.73706117       3.60603873       9.52689663
Si       7.92313911       0.30630781      18.43464962
Si      12.76110697       2.86957848      33.16236397
Si       6.88571499       2.74154803      11.36583519
22
Lattice="4.668289933389198 0.5294575611604657 2.5248248238248165 2.7552243508286267 6.63742926888393 2.079107301538723 8.56751069450734 0.35650636665907776 32.93477708001616" Properties=species:S:1:pos:R:3 unique_starting_index=40 config_type=initial n_minim_iter=9 stress="-0.0003958140813010598 0.0001149694535166572 0.0006974946133287876 0.0001149694535166572 7.356096813931042e-06 -0.0007898084452489407 0.0006974946133287876 -0.0007898084452489407 0.0002343019286706659" pbc="T T T"
Si      12.78963507       3.99233318      32.91172652
Si       4.27703999       3.03005105      10.50632170
Si       8.20469560       0.98340559      17.79082722
Si       8.46581146       2.71582056      29.90804865
Si      10.46751792       3.53095143      31.66932220
Si       8.90880630       6.39829753      18.28474604
Si       4.82995460       2.39024253       9.61364450
Si       8.45488230       6.25062860      19.15545387
Si       3.76513689       2.59790076       1.04142306
Si      12.37058589       3.87761428      33.71182907
Si       8.72931120       1.73472473      24.70647079
Si       7.30857395       4.60473302      24.13770286
Si       1.52034192       2.85302607      -0.49509027
Si       5.53647175       0.59615248      17.17156337
Si      10.47398461       2.64215404      31.84416675
Si      11.15742930       6.67064451      19.70446572
Si       6.98949073       3.74004557      10.97656075
Si       8.74711015       7.36882063      18.37838497
Si       4.74074187       3.60405564       9.53162809
Si       7.92805181       0.30115037      18.44682121
Si      12.77085211       2.86220261      33.18424032
Si       6.88597497       2.73793953      11.37514877
22
Lattice="4.666878417126753 0.5290739695435515 2.527446684510831 2.7516644068309852 6.637105073932257 2.085369830476191 8.573560941321539 0.3760437594062257 32.9488284445652" Properties=species:S:1:pos:R:3 unique_starting_index=40 config_type=initial n_minim_iter=10 stress="0.0003826037752175559 0.0005554080754146788 0.00037663857835137416 0.0005554080754146788 0.00014550536238949142 0.0006177492413750131 0.00037663857835137416 0.0006177492413750131 -0.00025364791095946863" pbc="T T T"
Si      12.79310356       4.01238991      32.92984183
Si       4.27622335       3.03947599      10.51308838
Si       8.20623418       0.99047840      17.79850038
Si       8.47042924       2.73508677      29.92417580
Si      10.47349183       3.54653302      31.68325429
Si       8.90904928       6.40508713      18.29685436
Si       4.82809740       2.39488288       9.62425209
Si       8.45413420       6.25815534      19.16733431
Si       3.76150282       2.59484110       1.04517325
Si      12.37369267       3.89368292      33.73028131
Si       8.73157461       1.74555946      24.71968176
Si       7.31055903       4.62025477      24.15179376
Si       1.51763814       2.85682235      -0.49410371
Si       5.53885496       0.60526800      17.17852019
Si      10.47629302       2.65941156      31.86418368
Si      11.15551908       6.67864204      19.71745290
Si       6.98763163       3.74589034      10.99021239
Si       8.74656335       7.37615910      18.39120584
Si       4.74345202       3.60926568       9.53565452
Si       7.92910788       0.30941304      18.45330251
Si      12.77413693       2.87945672      33.20147425
Si       6.88369091       2.74170872      11.38383808
22
Lattice="4.666545129832707 0.5258331537931272 2.5286883986093267 2.7476618736261718 6.63442123668902 2.0854736602590647 8.575475573501304 0.36636651670959475 32.96197215215687" Properties=species:S:1:pos:R:3 unique_starting_index=40 config_type=initial n_minim_iter=11 stress="0.0019319781269241253 -0.0022790358269419732 -0.00017163489606058802 -0.0022790358269419732 -0.0004155340528959966 -0.001131336343598532 -0.00017163489606058802 -0.001131336343598532 0.000656011202545448" pbc="T T T"
Si      12.79276993       4.00072235      32.94328217
Si       4.27447472       3.03752795      10.51743371
Si       8.20695781       0.98243675      17.80515249
Si       8.47118949       2.72654655      29.93632215
Si      10.47435694       3.53460520      31.69449656
Si       8.90642284       6.39595705      18.30264061
Si       4.82660636       2.39008568       9.63003976
Si       8.45093593       6.24933398      19.17367532
Si       3.75943214       2.59091996       1.04572513
Si      12.37328950       3.88039139      33.74333022
Si       8.73167418       1.73545985      24.73002854
Si       7.30926897       4.61303287      24.16103695
Si       1.51545685       2.85838584      -0.49518980
Si       5.53910977       0.59857212      17.18451180
Si      10.47598039       2.64843527      31.87854019
Si      11.15286475       6.66806566      19.72428516
Si       6.98532238       3.74054944      10.99645833
Si       8.74366333       7.36677329      18.39728775
Si       4.74322666       3.60513373       9.53771894
Si       7.92996351       0.30143612      18.45982271
Si      12.77435150       2.86688201      33.21519475
Si       6.88229108       2.73531392      11.38854798
22
Lattice="4.664937708575518 0.5274421324478547 2.531375596346147 2.7479157201657487 6.636096776897217 2.0893322053245873 8.582574687119704 0.37855084275072565 32.97608139061505" Properties=species:S:1:pos:R:3 unique_starting_index=40 config_type=initial n_minim_iter=12 stress="0.0009322730801500078 0.0004412730262772288 0.0005793809573875953 0.0004412730262772288 0.0003366406520459675 0.0002427184104819617 0.0005793809573875953 0.0002427184104819617 0.0002032588272100461" pbc="T T T"
Si      12.79838016       4.01506811      32.96102254
Si       4.27554838       3.04562434      10.52431110
Si       8.20962459       0.98904482      17.81351335
Si       8.47830930       2.73922898      29.95086772
Si      10.48218386       3.54572137      31.70835912
Si       8.90913847       6.40317432      18.31248479
Si       4.82696239       2.39359690       9.63882261
Si       8.45316544       6.25701063      19.18388702
Si       3.75747046       2.59028570       1.04850090
Si      12.37915851       3.89259218      33.75983938
Si       8.73542456       1.74322336      24.74269942
Si       7.31458792       4.62390456      24.17331570
Si       1.51455822       2.86269459      -0.49463725
Si       5.54172997       0.60351062      17.19096445
Si      10.48075719       2.66069063      31.89619897
Si      11.15528653       6.67608156      19.73611316
Si       6.98502215       3.74676120      11.00660445
Si       8.74750336       7.37359856      18.40824744
Si       4.74656844       3.60987751       9.54179149
Si       7.93226809       0.30775302      18.46731520
Si      12.77937331       2.88017127      33.23232997
Si       6.88278086       2.73989276      11.39592046
22
Lattice="4.663703485511632 0.526290362808505 2.5339401398223917 2.745376043654068 6.635363657965837 2.0919139325235427 8.588745495482392 0.3800471475998801 32.99346667645597" Properties=species:S:1:pos:R:3 unique_starting_index=40 config_type=initial n_minim_iter=13 stress="0.0013750831888024847 5.542745947506847e-05 0.0006602153720053388 5.542745947506847e-05 0.0002883175145406882 8.764545633227343e-05 0.0006602153720053388 8.764545633227343e-05 0.0003640511186018999" pbc="T T T"
Si      12.80207009       4.01573521      32.98070000
Si       4.27491642       3.05029600      10.53198027
Si       8.21173131       0.98852038      17.82272446
Si       8.48343193       2.74159251      29.96846127
Si      10.48853560       3.54565978      31.72421231
Si       8.90953191       6.40184071      18.32314316
Si       4.82631855       2.39232511       9.64848481
Si       8.45322582       6.25610688      19.19432610
Si       3.75452083       2.58796627       1.05067658
Si      12.38256493       3.89146189      33.77897340
Si       8.73812002       1.74156967      24.75747648
Si       7.31739469       4.62608702      24.18691367
Si       1.51271043       2.86565150      -0.49418727
Si       5.54428104       0.60214448      17.19865119
Si      10.48380996       2.66083573      31.91712325
Si      11.15468023       6.67359802      19.74776788
Si       6.98294826       3.74722802      11.01640251
Si       8.74825585       7.37183251      18.41958577
Si       4.74804995       3.60959345       9.54630873
Si       7.93378683       0.30612489      18.47602212
Si      12.78340759       2.88168808      33.25085928
Si       6.88347600       2.73905443      11.40341275
22
Lattice="4.662164986148451 0.5258500359822366 2.5368979121021504 2.7433507796141927 6.636078078868437 2.0951000199986343 8.593904545978019 0.3839628742800187 33.016411700821024" Properties=species:S:1:pos:R:3 unique_starting_index=40 config_type=initial n_minim_iter=14 stress="0.0014950767274717403 0.000275008597930302 0.0007708102036101894 0.000275008597930302 0.0007355677824401552 -0.0003141404567973972 0.0007708102036101894 -0.0003141404567973972 0.0006470591959588013" pbc="T T T"
Si      12.80549632       4.02030616      33.00628732
Si       4.27392533       3.05764602      10.54163269
Si       8.21350066       0.98922813      17.83475336
Si       8.48865740       2.74672479      29.99052693
Si      10.49342004       3.54775225      31.74549632
Si       8.90981978       6.40284206      18.33717129
Si       4.82519921       2.39231730       9.66089097
Si       8.45310100       6.25681926      19.20744633
Si       3.75188299       2.58685925       1.05268073
Si      12.38547838       3.89394112      33.80488027
Si       8.73997802       1.74193062      24.77656994
Si       7.31992308       4.63099145      24.20456589
Si       1.51036486       2.86852226      -0.49489391
Si       5.54611357       0.60264400      17.20903047
Si      10.48524434       2.66428592      31.94435253
Si      11.15404585       6.67444115      19.76314120
Si       6.98049249       3.74989309      11.02807401
Si       8.74825403       7.37323490      18.43365997
Si       4.74908356       3.60987047       9.55295124
Si       7.93480791       0.30601039      18.48754383
Si      12.78638156       2.88723094      33.27593020
Si       6.88483487       2.74042663      11.41252762
22
Lattice="4.6606626028102704 0.5258811868433902 2.539659337197284 2.7405166190872423 6.63614902673642 2.1010412702972467 8.595905685845457 0.40159402237125125 33.03993878443503" Properties=species:S:1:pos:R:3 unique_starting_index=40 config_type=initial n_minim_iter=15 stress="0.0017758059032693286 -0.00019110917665032167 0.0005597158134394227 -0.00019110917665032167 0.0008351052786372584 0.00046693799596498784 0.0005597158134394227 0.00046693799596498784 0.0011385314600087862" pbc="T T T"
Si      12.80467456       4.03762019      33.03357105
Si       4.27177304       3.06887470      10.55238751
Si       8.21352674       0.99605875      17.84686879
Si       8.49071024       2.76353088      30.01347322
Si      10.49580772       3.56190763      31.76940721
Si       8.90805595       6.40978386      18.35371768
Si       4.82300617       2.39582661       9.67479458
Si       8.45064778       6.26342337      19.22315369
Si       3.74879072       2.58514065       1.05512164
Si      12.38430214       3.90998719      33.83202742
Si       8.73947856       1.75202694      24.79649114
Si       7.31972829       4.64494804      24.22435477
Si       1.50888694       2.87074918      -0.49357382
Si       5.54620422       0.61026336      17.21993473
Si      10.48465856       2.67994777      31.97287847
Si      11.15149355       6.68190833      19.78118126
Si       6.97716588       3.75619883      11.04108173
Si       8.74576141       7.38055920      18.45036955
Si       4.74865109       3.61246582       9.56139298
Si       7.93459929       0.31338217      18.49918725
Si      12.78547081       2.90561042      33.30219385
Si       6.88519921       2.74590557      11.42220705
22
Lattice="4.659091447041523 0.5270907758534271 2.5422429369741883 2.741001986143141 6.636398985629802 2.103674121479466 8.601283774598116 0.40764757392061657 33.05724889089834" Properties=species:S:1:pos:R:3 unique_starting_index=40 config_type=initial n_minim_iter=16 stress="0.0016679331811955502 -5.505366394291811e-05 0.0004960804713429022 -5.505366394291811e-05 0.0007931006313809506 0.00010505819566121322 0.0004960804713429022 0.00010505819566121322 0.0012425735143158424" pbc="T T T"
Si      12.80856841       4.04537289      33.05371392
Si       4.27216282       3.07772101      10.55960691
Si       8.21455384       0.99793181      17.85483708
Si       8.49725592       2.77034138      30.03013957
Si      10.50198089       3.56596078      31.78565767
Si       8.91120628       6.41257062      18.36405318
Si       4.82245006       2.39738296       9.68766823
Si       8.45308133       6.26467211      19.23311314
Si       3.74707970       2.58422676       1.05720391
Si      12.38791395       3.91714725      33.85136086
Si       8.74181558       1.75438013      24.81151355
Si       7.32416289       4.65082088      24.23739564
Si       1.50776162       2.87462795      -0.49278833
Si       5.54813377       0.61181368      17.22754043
Si      10.48780303       2.68415585      31.99352220
Si      11.15336195       6.68527031      19.79271649
Si       6.97666010       3.76155550      11.05117427
Si       8.74861642       7.38296661      18.46022326
Si       4.75060460       3.61171457       9.56678756
Si       7.93556810       0.31570937      18.50787246
Si      12.78991180       2.91465271      33.32192879
Si       6.88717961       2.74969875      11.42838136
22
Lattice="4.657803555833153 0.5295285754918682 2.5440326585075863 2.7431863290537173 6.639419807771811 2.105466774383719 8.606952160010746 0.41487161318806737 33.064533523426654" Properties=species:S:1:pos:R:3 unique_starting_index=40 config_type=initial n_minim_iter=17 stress="0.001258419190211071 4.6027120090846655e-05 0.000447548654195735 4.6027120090846655e-05 0.0009829010997533792 -0.00016433146701638402 0.000447548654195735 -0.00016433146701638402 0.001095726049169919" pbc="T T T"
Si      12.81362367       4.05597106      33.06270543
Si       4.27376568       3.08704017      10.56319425
Si       8.21640676       1.00243604      17.85796474
Si       8.50383740       2.77876820      30.03778947
Si      10.50849364       3.57268638      31.79303579
Si       8.91575762       6.41929124      18.36837400
Si       4.82275087       2.40070146       9.69734469
Si       8.45759980       6.27018724      19.23769993
Si       3.74654252       2.58580711       1.05959793
Si      12.39245737       3.92735555      33.86102915
Si       8.74492994       1.75906869      24.81875401
Si       7.32989787       4.65879143      24.24286100
Si       1.50744354       2.87895429      -0.49282457
Si       5.54999818       0.61384219      17.22956469
Si      10.49345381       2.69225139      32.00450951
Si      11.15757769       6.69220848      19.79793347
Si       6.97766422       3.76978073      11.05761965
Si       8.75293524       7.38939407      18.46426107
Si       4.75374070       3.61291566       9.56922267
Si       7.93681550       0.31981565      18.51182469
Si      12.79538359       2.92610858      33.33042661
Si       6.88918078       2.75591144      11.43087739
22
Lattice="4.656864114640149 0.5329974043842285 2.544994433482401 2.7455120090129568 6.643403850783559 2.1092118183331556 8.608378770689477 0.435135478259853 33.06744026176899" Properties=species:S:1:pos:R:3 unique_starting_index=40 config_type=initial n_minim_iter=18 stress="0.0007105678661079544 -7.268695918541422e-05 0.00016495317353284824 -7.268695918541422e-05 0.0008958741104480426 3.637878661083334e-05 0.00016495317353284824 3.637878661083334e-05 0.0007986432557001977" pbc="T T T"
Si      12.81438504       4.07964050      33.06817626
Si       4.27418304       3.09996082      10.56637929
Si       8.21591079       1.01378120      17.85869068
Si       8.50710249       2.79876871      30.04183235
Si      10.51105791       3.59315416      31.79652841
Si       8.91881332       6.43321896      18.37194413
Si       4.82201776       2.40741280       9.70643731
Si       8.46099391       6.28371129      19.24175879
Si       3.74739221       2.58946027       1.06168093
Si      12.39273362       3.94977831      33.86700725
Si       8.74539435       1.77374724      24.82263629
Si       7.33270604       4.67603078      24.24649747
Si       1.50830216       2.88243446      -0.49110973
Si       5.54987698       0.62224744      17.22895467
Si      10.49457417       2.71351539      32.01105508
Si      11.16005602       6.70678042      19.80227953
Si       6.97774314       3.78292211      11.06358193
Si       8.75539524       7.40345086      18.46808922
Si       4.75689114       3.61801007       9.57087681
Si       7.93627901       0.33170344      18.51221848
Si      12.79741506       2.95007129      33.33642830
Si       6.89021332       2.76750195      11.43242470
22
Lattice="4.655988387831969 0.537612655399994 2.5456296694218676 2.749715280275075 6.647018194869567 2.1123756978036647 8.606000114438562 0.4555288570760079 33.073477621535055" Properties=species:S:1:pos:R:3 unique_starting_index=40 config_type=initial n_minim_iter=19 stress="-6.803314924296635e-05 8.703602015311617e-05 -0.00013877033620754913 8.703602015311617e-05 0.0002687864783087222 -0.00023614168930853193 -0.00013877033620754913 -0.00023614168930853193 0.0004565089086410336" pbc="T T T"
Si      12.81212039       4.10374101      33.07707734
Si       4.27382316       3.11359387      10.57064522
Si       8.21309346       1.02511175      17.85961479
Si       8.50703212       2.81876479      30.04897345
Si      10.51104217       3.61490156      31.80215620
Si       8.92196174       6.44723746      18.37604465
Si       4.82018856       2.41343439       9.71729164
Si       8.46421641       6.29646755      19.24577308
Si       3.74908251       2.59383221       1.06405319
Si      12.39143465       3.97381184      33.87475670
Si       8.74364410       1.78870999      24.82828666
Si       7.33409590       4.69274004      24.25158519
Si       1.50917402       2.88557289      -0.48998519
Si       5.54796114       0.63076250      17.22956625
Si      10.49376580       2.73556218      32.02110978
Si      11.16243675       6.72260252      19.80797089
Si       6.97697644       3.79795825      11.07068237
Si       8.75772829       7.41741295      18.47200866
Si       4.76152100       3.62304174       9.57161313
Si       7.93476857       0.34435052      18.51322485
Si      12.79661140       2.97456949      33.34400259
Si       6.89179690       2.78130708      11.43496665
22
Lattice="4.655332261498938 0.5421201033904146 2.545780038037946 2.753047426526884 6.650622779037844 2.116714919347558 8.601254795658589 0.4824148975609299 33.07693343122057" Properties=species:S:1:pos:R:3 unique_starting_index=40 config_type=initial n_minim_iter=20 stress="-0.0009096926004429748 0.0001615275453169234 -0.0005299562983311256 0.0001615275453169234 -0.000318906911592395 -0.0004958218889468748 -0.0005299562983311256 -0.0004958218889468748 -0.00010629162170532862" pbc="T T T"
Si      12.80788079       4.13328146      33.08314986
Si       4.27218248       3.13025157      10.57521013
Si       8.20982218       1.03979923      17.85776947
Si       8.50433920       2.84537102      30.05510676
Si      10.50787626       3.64190755      31.80734232
Si       8.92360699       6.46399848      18.37980839
Si       4.81693650       2.41989914       9.72911291
Si       8.46612022       6.31130762      19.24844859
Si       3.75035865       2.59727206       1.06662330
Si      12.38705450       4.00516453      33.88034737
Si       8.74029473       1.80790256      24.83193292
Si       7.33320333       4.71366314      24.25523429
Si       1.51148111       2.88893578      -0.48843370
Si       5.54515881       0.64248218      17.22862914
Si      10.48968936       2.76424137      32.02814244
Si      11.16293065       6.74071753      19.81235287
Si       6.97421275       3.81577529      11.07833453
Si       8.75734102       7.43375271      18.47519744
Si       4.76630797       3.62911494       9.57074596
Si       7.93168117       0.35926906      18.51272776
Si      12.79406622       3.00444434      33.34994381
Si       6.89370837       2.79793934      11.43769945
22
Lattice="4.654920532874999 0.5443039377650962 2.5459732519766853 2.7531190788249065 6.651328344431546 2.121892344335693 8.60053036086957 0.5094270553404577 33.07399192224232" Properties=species:S:1:pos:R:3 unique_starting_index=40 config_type=initial n_minim_iter=21 stress="-0.0014236662167864715 1.3006758063096e-05 -0.0006058018012432339 1.3006758063096e-05 -0.0009765889770313846 -0.0001985146730236841 -0.0006058018012432339 -0.0001985146730236841 -0.0005739806636051115" pbc="T T T"
Si      12.80690848       4.16015589      33.08314934
Si       4.27131923       3.14391069      10.57795684
Si       8.20941170       1.05323944      17.85401430
Si       8.50350823       2.87090530      30.05532908
Si      10.50731138       3.66779587      31.80702129
Si       8.92355631       6.47732811      18.38146535
Si       4.81475467       2.42539031       9.73702117
Si       8.46647277       6.32379310      19.24957557
Si       3.75069546       2.59842888       1.06863333
Si      12.38576930       4.03338611      33.88111457
Si       8.73946308       1.82637822      24.83110081
Si       7.33281166       4.73264706      24.25533541
Si       1.51074433       2.88982850      -0.48575431
Si       5.54452613       0.65429608      17.22555466
Si      10.48959636       2.78974336      32.02859569
Si      11.16234315       6.75444230      19.81448117
Si       6.97141280       3.82889794      11.08381514
Si       8.75608276       7.44640176      18.47747852
Si       4.76898868       3.63385711       9.56942670
Si       7.93064839       0.37287732      18.50987180
Si      12.79296786       3.03134126      33.35064258
Si       6.89496866       2.81015548      11.43937434
