24
Lattice="15.444188462277483 1.1952527259340435 -7.859251343614492 -6.983372283389771 6.9664706727501775 6.6454860277321 -8.72422934790821 3.7945244023047113 19.99567037503096" Properties=species:S:1:pos:R:3 unique_starting_index=90 config_type=initial n_minim_iter=1 energy=-4239.059980478903 free_energy=-4239.059980478903 pbc="T T T"
Si       7.40528942       3.59839826       7.69550188
Si      -3.56152717       1.84883924       4.76082820
Si       5.93756315       8.27991485       5.24444539
Si      -2.75973480       1.90696448       4.11515641
Si       2.03479626       7.03048213      16.63898928
Si     -13.30390276       8.34681373      22.52579824
Si      -2.83249384       2.49713579       5.08993183
Si       1.98252919       8.47740540      15.23623121
Si     -13.70631612       9.99718730      22.02145834
Si       6.44482609       5.66166718       6.21895598
Si       1.18671439       5.55467726       3.06867285
Si       5.98602430       7.78437451       4.45442452
Si       4.73034940       9.43725340       2.74133387
Si       3.60853354       5.69396817      10.87134595
Si      -4.06340771       4.11805354       3.45260752
Si     -14.44661976      10.03073689      22.71763911
Si      -3.86958400       2.29674798       5.60345820
Si       1.81675801       8.93603222      16.04253546
Si      -3.13779808       6.68584713      15.35447983
Si      -8.30496425       5.13351422      14.57829191
Si       1.15854964      10.51734790      13.63881560
Si      11.50485566       2.14694891      -2.56250888
Si       7.42567296       5.85132488       5.78237051
Si       0.59987436       6.63428360       4.85308185
24
Lattice="15.434506715730407 1.1990002659842827 -7.858564139802193 -6.977508056774304 6.967234802024927 6.644620344380264 -8.717543605804414 3.793129481517835 19.994291308274683" Properties=species:S:1:pos:R:3 unique_starting_index=90 config_type=initial n_minim_iter=2 stress="-0.0012652095564574448 0.00035031294089850367 -0.0004024591576315405 0.00035031294089850367 0.0019374705966738646 -0.000676040440131625 -0.0004024591576315405 -0.000676040440131625 -0.00020461912983190807" pbc="T T T"
Si       7.40030958       3.60141399       7.69463084
Si      -3.55969687       1.84783018       4.76036277
Si       5.93512752       8.28397981       5.24390886
Si      -2.75779643       1.90700764       4.11488750
Si       2.03558077       7.03202591      16.63746753
Si     -13.29356597       8.34610557      22.52400404
Si      -2.83009618       2.49736356       5.09001218
Si       1.98336727       8.47976217      15.23561336
Si     -13.69442267       9.99648443      22.01921409
Si       6.44236754       5.66424892       6.21826498
Si       1.18671269       5.55714252       3.06844615
Si       5.98398425       7.78749873       4.45418120
Si       4.72894386       9.44127658       2.74062671
Si       3.60763400       5.69604417      10.87039079
Si      -4.06081647       4.12013000       3.45102230
Si     -14.43462760      10.02987918      22.71543134
Si      -3.86660255       2.29603190       5.60310366
Si       1.81813976       8.93853266      16.04140089
Si      -3.13356685       6.68693131      15.35348760
Si      -8.29794289       5.13271172      14.57755229
Si       1.16015238      10.52126586      13.63721244
Si      11.49804205       2.15069983      -2.56193693
Si       7.42241069       5.85328833       5.78305154
Si       0.60096991       6.63621243       4.85219815
24
Lattice="15.43547533996441 1.1975890461749608 -7.857644909380052 -6.9779343275036085 6.966358239805101 6.644983691107547 -8.717201653821919 3.794314012783386 19.994561278587014" Properties=species:S:1:pos:R:3 unique_starting_index=90 config_type=initial n_minim_iter=3 stress="-0.0017671725679043362 0.0018866998915333811 -0.0012280805505214764 0.0018866998915333811 -0.003194713963117254 0.0021635927758898756 -0.0012280805505214764 0.0021635927758898756 -0.001925333238199323" pbc="T T T"
Si       7.40119529       3.60123913       7.69553928
Si      -3.55995446       1.84780783       4.76039738
Si       5.93583244       8.28232087       5.24526442
Si      -2.75790575       1.90704482       4.11502289
Si       2.03673938       7.03187725      16.63852187
Si     -13.29366389       8.34655880      22.52445967
Si      -2.83013066       2.49734608       5.09027417
Si       1.98432173       8.47913089      15.23695670
Si     -13.69438287       9.99641015      22.01971194
Si       6.44330776       5.66328633       6.21928944
Si       1.18679813       5.55617911       3.06916334
Si       5.98467992       7.78582132       4.45545809
Si       4.72928698       9.43913413       2.74182965
Si       3.60854957       5.69560595      10.87136617
Si      -4.06116536       4.11969155       3.45112857
Si     -14.43474534      10.02989623      22.71592110
Si      -3.86669430       2.29601149       5.60322837
Si       1.81920389       8.93775971      16.04278960
Si      -3.13290454       6.68688262      15.35432352
Si      -8.29784840       5.13302080      14.57793806
Si       1.16089261      10.52012570      13.63853426
Si      11.49890456       2.14982987      -2.56102162
Si       7.42339460       5.85201948       5.78442656
Si       0.60120281       6.63500029       4.85290173
24
Lattice="15.43710616834527 1.1958701278509447 -7.856719373621224 -6.979115640197728 6.966431747278403 6.644863614146246 -8.716820341999998 3.794811713200264 19.995671743112595" Properties=species:S:1:pos:R:3 unique_starting_index=90 config_type=initial n_minim_iter=4 stress="0.000398749181310467 -0.0002961572536682972 0.0003909559360943591 -0.0002961572536682972 -0.0007462709462977303 0.00034944908215115013 0.0003909559360943591 0.00034944908215115013 -0.00017959660674383293" pbc="T T T"
Si       7.40272845       3.60023711       7.69710351
Si      -3.56038603       1.84788913       4.76046374
Si       5.93658297       8.28087720       5.24655007
Si      -2.75817142       1.90718939       4.11517735
Si       2.03831113       7.03096354      16.64036743
Si     -13.29431277       8.34712502      22.52528327
Si      -2.83033304       2.49743089       5.09056446
Si       1.98548656       8.47812739      15.23880132
Si     -13.69507126       9.99678157      22.02035366
Si       6.44457295       5.66203677       6.22058954
Si       1.18667019       5.55564801       3.06965037
Si       5.98540734       7.78438254       4.45663972
Si       4.72935393       9.43773263       2.74256737
Si       3.60981418       5.69465456      10.87285788
Si      -4.06195390       4.11981154       3.45094187
Si     -14.43562703      10.03035768      22.71657318
Si      -3.86698438       2.29609815       5.60339759
Si       1.82046987       8.93660425      16.04471572
Si      -3.13224737       6.68657791      15.35561526
Si      -8.29806415       5.13334477      14.57860699
Si       1.16154682      10.51911005      13.64001274
Si      11.50031454       2.14859835      -2.55995526
Si       7.42474507       5.85045622       5.78607034
Si       0.60118506       6.63424585       4.85338209
24
Lattice="15.439572157994812 1.1998778565571564 -7.8633037644640105 -6.97926896578922 6.9639612133222935 6.648392802058856 -8.720558733034657 3.790873725975702 20.005281111086767" Properties=species:S:1:pos:R:3 unique_starting_index=90 config_type=initial n_minim_iter=5 stress="1.1893422472579479e-05 0.0009239568651036517 4.519782618411901e-05 0.0009239568651036517 -0.0013924451404226815 -0.00017815486120656684 4.519782618411901e-05 -0.00017815486120656684 0.001552386000819016" pbc="T T T"
Si       7.40113685       3.60139118       7.69809015
Si      -3.56200472       1.84619917       4.76274336
Si       5.93748528       8.28090679       5.24708851
Si      -2.75919870       1.90655116       4.11760073
Si       2.03683189       7.02896714      16.64557612
Si     -13.29830376       8.34188649      22.53620573
Si      -2.83150344       2.49651056       5.09324379
Si       1.98384341       8.47758981      15.24341218
Si     -13.69667443       9.99101667      22.03052864
Si       6.44487168       5.66253018       6.22073871
Si       1.18659940       5.55619650       3.07046412
Si       5.98598681       7.78497019       4.45673816
Si       4.73067859       9.43774993       2.74140852
Si       3.60889476       5.69413680      10.87560445
Si      -4.06155896       4.11771555       3.45313893
Si     -14.43846288      10.02439183      22.72731878
Si      -3.86803766       2.29415243       5.60638311
Si       1.81920163       8.93517302      16.05017605
Si      -3.13310941       6.68440594      15.36222192
Si      -8.29986780       5.12997479      14.58628029
Si       1.16111317      10.51806257      13.64425147
Si      11.50190068       2.15181425      -2.56308138
Si       7.42518426       5.85024611       5.78732501
Si       0.60181248       6.63316204       4.85405123
24
Lattice="15.440964802731182 1.195411039674422 -7.862144873921111 -6.982439880990777 6.969877367384052 6.647278319551297 -8.726288603790543 3.7980980653581735 19.99587412245648" Properties=species:S:1:pos:R:3 unique_starting_index=90 config_type=initial n_minim_iter=6 stress="0.0001705252223153822 -0.0003247692886197569 -0.0003872360227676616 -0.0003247692886197569 -0.00016639991350072403 0.0007765457075739233 -0.0003872360227676616 0.0007765457075739233 -0.00046346853997296817" pbc="T T T"
Si       7.39751908       3.60285786       7.69201059
Si      -3.56423412       1.84838253       4.76083319
Si       5.93407683       8.28386284       5.24413939
Si      -2.76106371       1.90909097       4.11654334
Si       2.03133761       7.03446277      16.63529466
Si     -13.30617181       8.35277543      22.52690482
Si      -2.83390319       2.49933815       5.09148568
Si       1.97776699       8.48388400      15.23512674
Si     -13.70296683      10.00232243      22.02159188
Si       6.44198370       5.66466082       6.21585934
Si       1.18384794       5.55978766       3.06959115
Si       5.98263400       7.78785735       4.45420697
Si       4.72744518       9.44104066       2.73982821
Si       3.60480633       5.69772770      10.86867828
Si      -4.06293012       4.12041184       3.45308413
Si     -14.44592008      10.03612581      22.71805438
Si      -3.87014303       2.29667407       5.60434193
Si       1.81310376       8.94166642      16.04154322
Si      -3.13740692       6.69106612      15.35509863
Si      -8.30418261       5.13687566      14.58068287
Si       1.15533571      10.52516324      13.63758460
Si      11.50199347       2.15014934      -2.56340948
Si       7.42229063       5.85143973       5.78375185
Si       0.59923094       6.63640027       4.85153282
24
Lattice="15.437074474277336 1.202152334360894 -7.859708662414153 -6.978721489564703 6.967013958758781 6.642657597987179 -8.722420055305596 3.7896131445023773 19.98841427196195" Properties=species:S:1:pos:R:3 unique_starting_index=90 config_type=initial n_minim_iter=7 stress="-0.0011845728941709559 3.8054257538823044e-06 0.00046541430137916944 3.8054257538823044e-06 -0.0008223609129252871 -0.0002979579417343941 0.00046541430137916944 -0.0002979579417343941 -0.00046397091143991076" pbc="T T T"
Si       7.39648980       3.60245800       7.68877121
Si      -3.56321163       1.84575259       4.75856670
Si       5.93491520       8.28455058       5.24042722
Si      -2.76025881       1.90753687       4.11527898
Si       2.03333193       7.03086615      16.62675639
Si     -13.30075440       8.34326145      22.51655117
Si      -2.83315360       2.49709139       5.08948995
Si       1.97960769       8.48052716      15.22799207
Si     -13.69461200       9.99268800      22.01070806
Si       6.44203043       5.66516740       6.21181574
Si       1.18413843       5.56110795       3.06725845
Si       5.98267029       7.78936475       4.45073164
Si       4.72834561       9.44259836       2.73536084
Si       3.60575090       5.69579556      10.86318774
Si      -4.06043477       4.11851094       3.45058295
Si     -14.43826770      10.02602524      22.70640170
Si      -3.86866580       2.29358734       5.60183288
Si       1.81544611       8.93774538      16.03405943
Si      -3.13300298       6.68640051      15.34864541
Si      -8.29987033       5.13077786      14.57474371
Si       1.15813524      10.52262689      13.63045558
Si      11.49972384       2.15476763      -2.56219411
Si       7.42194192       5.85209075       5.78080725
Si       0.60117761       6.63538906       4.84708552
24
Lattice="15.456369361418005 1.210906694475412 -7.868215808831081 -6.985210784067164 6.968979757667051 6.646782450027933 -8.740082307373829 3.789084044467758 19.992461594525302" Properties=species:S:1:pos:R:3 unique_starting_index=90 config_type=initial n_minim_iter=8 stress="0.0013107838386962876 0.001115815507343671 7.277615071378833e-05 0.001115815507343671 0.0007119760389309896 0.0004809683970359668 7.277615071378833e-05 0.0004809683970359668 -0.000123420467258955" pbc="T T T"
Si       7.40018913       3.60921923       7.68422605
Si      -3.56884790       1.84471364       4.76046878
Si       5.94199899       8.29412652       5.23812284
Si      -2.76482134       1.90781288       4.11805939
Si       2.02919193       7.03867688      16.62297736
Si     -13.32276761       8.34382694      22.52278330
Si      -2.83867172       2.49700304       5.09213322
Si       1.97651829       8.48935321      15.22606673
Si     -13.71171966       9.99379556      22.01739448
Si       6.44728615       5.67367342       6.20724213
Si       1.18476315       5.56836085       3.06754872
Si       5.98908380       7.79893586       4.44784990
Si       4.73555565       9.45219741       2.73192318
Si       3.60578679       5.70282241      10.85980515
Si      -4.06366569       4.11961305       3.45268865
Si     -14.45798549      10.02685374      22.71221493
Si      -3.87481017       2.29263041       5.60412800
Si       1.81225530       8.94679577      16.03272487
Si      -3.13874659       6.69139535      15.35075149
Si      -8.31258240       5.13137378      14.57970740
Si       1.15675684      10.53222619      13.63060183
Si      11.51265542       2.16368858      -2.56738543
Si       7.42812346       5.86128001       5.77675968
Si       0.60299766       6.64001416       4.84545930
24
Lattice="15.458010616180125 1.204060674773566 -7.8832363872791 -6.993101314868651 6.970287824355601 6.651703244200066 -8.758340687342898 3.7884690209270504 19.999831461567" Properties=species:S:1:pos:R:3 unique_starting_index=90 config_type=initial n_minim_iter=9 stress="-0.0005734698448562722 -0.000623905709142604 -0.00033825863103356164 -0.000623905709142604 -0.0003133470842451492 0.00014322904379446955 -0.00033825863103356164 0.00014322904379446955 0.00040263498300223763" pbc="T T T"
Si       7.38780041       3.60223808       7.67635210
Si      -3.57377160       1.84432881       4.76335822
Si       5.93069814       8.28852721       5.23157904
Si      -2.76974360       1.90770106       4.12204787
Si       2.00855311       7.03231847      16.61727538
Si     -13.34553619       8.34369997      22.53261435
Si      -2.84581607       2.49533891       5.09615112
Si       1.95631677       8.48421306      15.22115334
Si     -13.73018355       9.99404218      22.02736395
Si       6.43628150       5.66823698       6.19903108
Si       1.17601696       5.56928211       3.06621321
Si       5.97763889       7.79356131       4.44061633
Si       4.72540213       9.44751315       2.72364701
Si       3.59118768       5.69737151      10.85367889
Si      -4.06811052       4.12008984       3.45520644
Si     -14.47848172      10.02737914      22.72079258
Si      -3.88094423       2.29181071       5.60757479
Si       1.79148140       8.94095530      16.02882132
Si      -3.15250590       6.68922313      15.35328118
Si      -8.32580444       5.13155943      14.58728682
Si       1.13708808      10.52718590      13.62841177
Si      11.50966465       2.15913683      -2.57708040
Si       7.41636388       5.85572695       5.76835359
Si       0.59520338       6.63605028       4.84128835
24
Lattice="15.488423009654625 1.2203458774252847 -7.894187914693617 -7.005979100398856 6.9653260229777505 6.6474905462630325 -8.791800180357574 3.7703312101821123 19.98508186907815" Properties=species:S:1:pos:R:3 unique_starting_index=90 config_type=initial n_minim_iter=10 stress="0.0006126216144594718 -0.00016938173294105556 0.00039840553728017673 -0.00016938173294105556 0.0001793481454631109 -0.00038201170683363874 0.00039840553728017673 -0.00038201170683363874 -3.301032760049269e-05" pbc="T T T"
Si       7.38789646       3.60314735       7.65511079
Si      -3.58520647       1.83853069       4.75993705
Si       5.93796804       8.29466018       5.21428338
Si      -2.77885056       1.90281414       4.12329851
Si       1.99400343       7.02442572      16.58677151
Si     -13.38612794       8.31955596      22.51551460
Si      -2.85790567       2.48749290       5.09743209
Si       1.94628130       8.47944898      15.19394607
Si     -13.76198427       9.97566255      22.01037465
Si       6.44152297       5.67175500       6.17926213
Si       1.17150119       5.57885354       3.05992870
Si       5.98207615       7.80003222       4.42311816
Si       4.73229056       9.45513348       2.70445962
Si       3.58659810       5.69514378      10.82954027
Si      -4.07570484       4.11517583       3.45415934
Si     -14.51371695      10.00732352      22.69882641
Si      -3.89369681       2.28412636       5.60451971
Si       1.78202685       8.93565465      16.00134447
Si      -3.16283425       6.68166403      15.33769968
Si      -8.34948969       5.11755261      14.57914209
Si       1.12590499      10.52689862      13.60631132
Si      11.52798018       2.17199479      -2.58566080
Si       7.42187487       5.86184291       5.74839026
Si       0.59606696       6.63327282       4.82532443
24
Lattice="15.49389703300642 1.2249664368438953 -7.913394586305355 -7.011115566955007 6.9699499633511905 6.655108834100256 -8.81364730588326 3.769971571235629 19.994807108482306" Properties=species:S:1:pos:R:3 unique_starting_index=90 config_type=initial n_minim_iter=11 stress="-0.00016270391804872796 -0.0003967388012743764 -0.00018215260060492277 -0.0003967388012743764 0.0011219257312270726 -0.00045928113159077107 -0.00018215260060492277 -0.00045928113159077107 0.000970149399566327" pbc="T T T"
Si       7.37625323       3.60631301       7.64533415
Si      -3.59153720       1.83840389       4.76344410
Si       5.93225375       8.30274047       5.20731632
Si      -2.78362750       1.90296920       4.12779050
Si       1.97255147       7.02974940      16.58089118
Si     -13.40957699       8.31962369      22.52924612
Si      -2.86475800       2.48764238       5.10369372
Si       1.92796776       8.48539454      15.18847363
Si     -13.78110673       9.98093201      22.02435987
Si       6.43349976       5.67814988       6.17005229
Si       1.16484757       5.58834104       3.05919643
Si       5.97474604       7.80734840       4.41544819
Si       4.72838983       9.46482294       2.69591272
Si       3.57328583       5.69979750      10.82197275
Si      -4.07779336       4.11725562       3.45968934
Si     -14.53300158      10.01043347      22.71230679
Si      -3.90076578       2.28418913       5.60891054
Si       1.76403218       8.94147206      15.99719430
Si      -3.17552914       6.68637231      15.34192169
Si      -8.36418413       5.11934772      14.58874249
Si       1.10873576      10.53773659      13.60394659
Si      11.52654358       2.17766084      -2.59886448
Si       7.41351678       5.86844646       5.73828612
Si       0.59193676       6.63695112       4.82086927
24
Lattice="15.503368903421256 1.2286940608053412 -7.9127540853049085 -7.016157996072772 6.971233664748694 6.64996571010938 -8.825785404817157 3.766547478589978 19.97751884847559" Properties=species:S:1:pos:R:3 unique_starting_index=90 config_type=initial n_minim_iter=12 stress="0.00023393609907676295 -0.00048336519932398346 0.00046609544933156005 -0.00048336519932398346 0.0010519376737417126 -0.000781580791509816 0.00046609544933156005 -0.000781580791509816 9.263306919983956e-05" pbc="T T T"
Si       7.37567481       3.60669340       7.63369679
Si      -3.59619390       1.83644863       4.76007773
Si       5.93359134       8.30644764       5.19797817
Si      -2.78688188       1.90201186       4.12577550
Si       1.96467780       7.03022456      16.55988192
Si     -13.42473135       8.31428643      22.50935678
Si      -2.86900884       2.48656454       5.10247317
Si       1.92173691       8.48647650      15.16809395
Si     -13.79294085       9.98000428      22.00511757
Si       6.43418713       5.68120835       6.15919705
Si       1.16096261       5.59489975       3.05570405
Si       5.97333735       7.81114231       4.40738389
Si       4.72939571       9.46933452       2.68793219
Si       3.57069056       5.70052209      10.80588763
Si      -4.07991406       4.11804672       3.45814587
Si     -14.54454217      10.00703361      22.69205134
Si      -3.90590654       2.28281987       5.60457691
Si       1.75843010       8.94244932      15.97657728
Si      -3.17900992       6.68652073      15.32785780
Si      -8.37335292       5.11802625      14.57673772
Si       1.10272182      10.54236388      13.58778649
Si      11.53135278       2.18074045      -2.60091136
Si       7.41472430       5.87064584       5.72804566
Si       0.59156270       6.63714862       4.81153527
24
Lattice="15.509072679723756 1.2278870381433933 -7.922666067509509 -7.020546243447438 6.9743104740597195 6.655974969194542 -8.836704581860511 3.769581939966103 19.9884625331962" Properties=species:S:1:pos:R:3 unique_starting_index=90 config_type=initial n_minim_iter=13 stress="0.00042186644291186676 -0.0007396638234053604 -9.292366138829337e-05 -0.0007396638234053604 0.0012330074376039398 -0.0006010526170323161 -9.292366138829337e-05 -0.0006010526170323161 0.001070601625781513" pbc="T T T"
Si       7.37266107       3.60845294       7.63309994
Si      -3.59947922       1.83762530       4.76366582
Si       5.93145871       8.30992499       5.19737882
Si      -2.78978523       1.90327739       4.12905498
Si       1.95574196       7.03437753      16.56423445
Si     -13.43801248       8.31756684      22.52300285
Si      -2.87231119       2.48766700       5.10666803
Si       1.91450784       8.49014174      15.17216454
Si     -13.80445462       9.98511239      22.01941357
Si       6.43192941       5.68379162       6.15840673
Si       1.15782859       5.59892117       3.05701262
Si       5.97042058       7.81358371       4.40679979
Si       4.72807960       9.47268444       2.68676749
Si       3.56607483       5.70303565      10.80701113
Si      -4.08195282       4.11966497       3.46177707
Si     -14.55680297      10.01214274      22.70716906
Si      -3.90960439       2.28367815       5.60872050
Si       1.75055548       8.94603185      15.98087878
Si      -3.18560515       6.68999299      15.33560251
Si      -8.38136644       5.12096737      14.58632484
Si       1.09601017      10.54739779      13.59249395
Si      11.53381574       2.18026536      -2.60680112
Si       7.41297676       5.87274288       5.72668893
Si       0.58948962       6.63886861       4.81222080
24
Lattice="15.50674526856408 1.2337320355993726 -7.918842356629853 -7.017489117786197 6.97485411387209 6.651582949417309 -8.834631312079765 3.7665164771427437 19.976936556205807" Properties=species:S:1:pos:R:3 unique_starting_index=90 config_type=initial n_minim_iter=14 stress="0.00021472246133922201 -0.0005341647557321736 0.00037042149856967243 -0.0005341647557321736 0.001057659875600994 -0.0007882074873921071 0.00037042149856967243 -0.0007882074873921071 0.0005571707246993605" pbc="T T T"
Si       7.37233595       3.61219921       7.62826414
Si      -3.59927682       1.83757011       4.76118544
Si       5.93329738       8.31524123       5.19369434
Si      -2.79006322       1.90372374       4.12762519
Si       1.95530130       7.03672196      16.55353067
Si     -13.43507049       8.31226061      22.50828832
Si      -2.87188401       2.48716825       5.10483302
Si       1.91680993       8.49293723      15.16164713
Si     -13.79762352       9.98241601      22.00629923
Si       6.43239196       5.68852396       6.15385553
Si       1.15613849       5.60524649       3.05526212
Si       5.96963097       7.81722601       4.40394357
Si       4.72928656       9.47888076       2.68336946
Si       3.56755408       5.70546120      10.79800707
Si      -4.07976452       4.11972404       3.45979517
Si     -14.55042032      10.00961959      22.69400074
Si      -3.90898342       2.28211453       5.60585038
Si       1.75219784       8.94865418      15.96903043
Si      -3.18124123       6.69025696      15.32770010
Si      -8.37807133       5.11885215      14.57873745
Si       1.09898362      10.55165241      13.58374584
Si      11.53102661       2.18425367      -2.60639574
Si       7.41350726       5.87724143       5.72236690
Si       0.59193882       6.64023724       4.80684161
24
Lattice="15.506118121451804 1.2358905062667829 -7.916858852218264 -7.0167839752994565 6.97902149197381 6.649454699410868 -8.836495500157078 3.7694648909194544 19.96693687376569" Properties=species:S:1:pos:R:3 unique_starting_index=90 config_type=initial n_minim_iter=15 stress="0.00022014661686955072 -0.0004900864648850519 0.000319877501370552 -0.0004900864648850519 0.0012597218363166525 -0.0008002525515075244 0.000319877501370552 -0.0008002525515075244 0.00014765631182957662" pbc="T T T"
Si       7.37104862       3.61743079       7.62223687
Si      -3.59985308       1.83803957       4.75988508
Si       5.93334696       8.32189377       5.19015729
Si      -2.79058755       1.90495978       4.12688695
Si       1.95188981       7.04335337      16.54386068
Si     -13.43775129       8.31607106      22.49674278
Si      -2.87237077       2.48847965       5.10311089
Si       1.91555142       8.50025584      15.15184072
Si     -13.79739793       9.98859904      21.99660292
Si       6.43148326       5.69383080       6.14977793
Si       1.15382289       5.61223294       3.05382113
Si       5.96753120       7.82328762       4.40087127
Si       4.72914639       9.48647876       2.68196229
Si       3.56672143       5.71055307      10.78959929
Si      -4.07891206       4.12211219       3.45890481
Si     -14.55034696      10.01668287      22.68398460
Si      -3.90980291       2.28310391       5.60399955
Si       1.75032088       8.95509036      15.96008013
Si      -3.18136125       6.69494042      15.32094564
Si      -8.37808445       5.12179942      14.57282494
Si       1.09847852      10.55989770      13.57628424
Si      11.52914863       2.18648403      -2.60771910
Si       7.41256100       5.88270054       5.71828866
Si       0.59248996       6.64418222       4.80327068
24
Lattice="15.504647190642492 1.2343750796661825 -7.920510212975724 -7.016544324059059 6.982401781781762 6.653563450046146 -8.83767329956496 3.7750185008919837 19.97385570110217" Properties=species:S:1:pos:R:3 unique_starting_index=90 config_type=initial n_minim_iter=16 stress="-0.00010354942375194345 -0.00046482015598562227 0.0004363608011105253 -0.00046482015598562227 0.0009801851418859014 -0.00035665433809637965 0.0004363608011105253 -0.00035665433809637965 0.0006149714834292751" pbc="T T T"
Si       7.36977664       3.62128762       7.62355812
Si      -3.60045383       1.83908128       4.76266019
Si       5.93212013       8.32509841       5.19219544
Si      -2.79059698       1.90601024       4.12949230
Si       1.94893068       7.04911280      16.54909170
Si     -13.44048498       8.32266800      22.50473751
Si      -2.87267663       2.48964354       5.10574735
Si       1.91390076       8.50556218      15.15727703
Si     -13.79774120       9.99629800      22.00610489
Si       6.42997434       5.69694990       6.15209267
Si       1.15123901       5.61695848       3.05538758
Si       5.96520248       7.82601888       4.40284318
Si       4.72769932       9.49039409       2.68448565
Si       3.56562997       5.71454798      10.79145247
Si      -4.07859476       4.12352553       3.46167828
Si     -14.55000842      10.02448184      22.69403995
Si      -3.91046525       2.28453358       5.60734533
Si       1.74781818       8.96155200      15.96584644
Si      -3.18215167       6.69943973      15.32782832
Si      -8.37804726       5.12631731      14.57914952
Si       1.09716485      10.56609628      13.58119148
Si      11.52703243       2.18590594      -2.61008339
Si       7.41080717       5.88587748       5.72031843
Si       0.59226049       6.64654205       4.80523801
24
Lattice="15.51304199410287 1.2370759827456388 -7.924344427728551 -7.021117531724871 6.98104896440562 6.652678131186144 -8.848260013778932 3.7704171164113527 19.970121785089564" Properties=species:S:1:pos:R:3 unique_starting_index=90 config_type=initial n_minim_iter=17 stress="0.00036752427074302114 -0.0003243421553823581 -1.821275127807862e-05 -0.0003243421553823581 0.00048622493739449834 -0.0007488721952141732 -1.821275127807862e-05 -0.0007488721952141732 8.720311090207147e-05" pbc="T T T"
Si       7.37019863       3.62119102       7.61707244
Si      -3.60410402       1.83811449       4.76276592
Si       5.93258910       8.32449323       5.18573482
Si      -2.79276962       1.90458737       4.12948147
Si       1.94333405       7.04632266      16.54142655
Si     -13.45474972       8.31696474      22.50024317
Si      -2.87557377       2.48776443       5.10498222
Si       1.90918892       8.50352687      15.15002453
Si     -13.81039480       9.99142556      22.00241643
Si       6.43030686       5.69669290       6.14656231
Si       1.14914903       5.61886981       3.05213813
Si       5.96588173       7.82526116       4.39750529
Si       4.72851482       9.49137273       2.68000927
Si       3.56374529       5.71288028      10.78394950
Si      -4.08123166       4.12253850       3.46151721
Si     -14.56238787      10.01930272      22.69081377
Si      -3.91428031       2.28288920       5.60723138
Si       1.74279447       8.95855542      15.95820323
Si      -3.18858755       6.69552940      15.32374973
Si      -8.38591499       5.12318449      14.57668504
Si       1.09350097      10.56408951      13.57335646
Si      11.53184595       2.18667777      -2.61457359
Si       7.41147557       5.88587754       5.71455718
Si       0.59134661       6.64578258       4.80175034
24
Lattice="15.509161326399436 1.2350702888209542 -7.921689063638221 -7.018589054901954 6.986603857996035 6.65457602823675 -8.84335303963124 3.7797241661353134 19.971084668720138" Properties=species:S:1:pos:R:3 unique_starting_index=90 config_type=initial n_minim_iter=18 stress="3.496145855214429e-06 -0.00019558206509601834 0.0003320610625123012 -0.00019558206509601834 0.0005442929760143845 -7.863631962002618e-05 0.0003320610625123012 -7.863631962002618e-05 0.00021507655824955788" pbc="T T T"
Si       7.37097682       3.62680163       7.61955488
Si      -3.60322983       1.84125687       4.76363457
Si       5.93285378       8.32974800       5.19009121
Si      -2.79164269       1.90638683       4.13057426
Si       1.94609410       7.05634182      16.54514927
Si     -13.44928090       8.32821908      22.50186201
Si      -2.87432673       2.48992672       5.10608913
Si       1.91118833       8.51423988      15.15458608
Si     -13.80421629      10.00412636      22.00547882
Si       6.43073723       5.70235342       6.15017189
Si       1.14805595       5.62483524       3.05363031
Si       5.96577802       7.83035635       4.40125829
Si       4.72825926       9.49731727       2.68481183
Si       3.56604166       5.72002513      10.78579330
Si      -4.08002519       4.12562256       3.46278566
Si     -14.55501536      10.03253616      22.69410586
Si      -3.91289934       2.28575792       5.60829302
Si       1.74568711       8.96892606      15.96302098
Si      -3.18531050       6.70343544      15.32769380
Si      -8.38156520       5.13140866      14.57785637
Si       1.09650350      10.57425794      13.57749407
Si      11.52970610       2.18614226      -2.61219450
Si       7.41136487       5.89138986       5.71869127
Si       0.59261187       6.65073754       4.80472384
24
Lattice="15.51436117227789 1.2368136875471212 -7.926210457756557 -7.022223177483471 6.98503723409507 6.6540944810208575 -8.852481246707873 3.775008245659393 19.9688634798282" Properties=species:S:1:pos:R:3 unique_starting_index=90 config_type=initial n_minim_iter=19 stress="0.00010782782191512997 -9.260959581175011e-05 -8.111354175626593e-05 -9.260959581175011e-05 -0.00012228363616532335 -8.342943510377464e-05 -8.111354175626593e-05 -8.342943510377464e-05 -4.961052838687541e-05" pbc="T T T"
Si       7.36982102       3.62566340       7.61364606
Si      -3.60610043       1.84028387       4.76387998
Si       5.93168496       8.32714362       5.18446828
Si      -2.79471680       1.90521892       4.13061439
Si       1.94006848       7.05244573      16.53850063
Si     -13.45997661       8.32142279      22.49966073
Si      -2.87700606       2.48773603       5.10573448
Si       1.90459030       8.51061140      15.14872530
Si     -13.81528643       9.99865722      22.00358168
Si       6.42948675       5.70123869       6.14481313
Si       1.14502709       5.62684957       3.04916123
Si       5.96499741       7.82926093       4.39495172
Si       4.72746047       9.49734510       2.68033678
Si       3.56343323       5.71771140      10.77860292
Si      -4.08147426       4.12497503       3.46250407
Si     -14.56568824      10.02743595      22.69292294
Si      -3.91585109       2.28397818       5.60857149
Si       1.73931117       8.96542247      15.95705059
Si      -3.19224684       6.69805883      15.32521017
Si      -8.38790181       5.12816223      14.57637249
Si       1.09190089      10.57108927      13.57034630
Si      11.53219576       2.18592324      -2.61710791
Si       7.41021356       5.89006285       5.71330901
Si       0.59105066       6.64986018       4.80226521
24
Lattice="15.514415906528134 1.2409306204731319 -7.924992635585189 -7.020911872350589 6.985002777718272 6.652035706866046 -8.852550917978132 3.772636681897084 19.963340550048663" Properties=species:S:1:pos:R:3 unique_starting_index=90 config_type=initial n_minim_iter=20 stress="-7.545299963705703e-05 0.00025428204227676747 5.295835058373476e-05 0.00025428204227676747 -0.0005172807703473563 0.0003598581848477294 5.295835058373476e-05 0.0003598581848477294 -0.00018806122048829237" pbc="T T T"
Si       7.37159458       3.62808634       7.61026209
Si      -3.60638171       1.83909630       4.76343830
Si       5.93211638       8.32981286       5.18114415
Si      -2.79634850       1.90496266       4.12948541
Si       1.94070095       7.05391069      16.53285304
Si     -13.45885772       8.31763873      22.49344838
Si      -2.87693843       2.48666596       5.10494807
Si       1.90400979       8.51253114      15.14383722
Si     -13.81460410       9.99648095      21.99798300
Si       6.43042527       5.70405684       6.14193735
Si       1.14322019       5.63251278       3.04443722
Si       5.96735421       7.83190488       4.39138494
Si       4.72844316       9.50126719       2.67841218
Si       3.56559634       5.71976864      10.77225995
Si      -4.08024795       4.12446068       3.46192707
Si     -14.56383022      10.02538348      22.68763666
Si      -3.91565429       2.28271838       5.60787368
Si       1.74045060       8.96728834      15.95274753
Si      -3.19239551       6.69536488      15.32279071
Si      -8.38617842       5.12659617      14.57274662
Si       1.09368886      10.57307734      13.56455562
Si      11.53177109       2.18866479      -2.61790569
Si       7.41107246       5.89268841       5.71070114
Si       0.59248202       6.65212471       4.80137552
24
Lattice="15.52282389017223 1.2425333854501144 -7.931587605288367 -7.027374401724938 6.9857322993103335 6.6510738703183 -8.868566510427053 3.768729782301016 19.95661277522275" Properties=species:S:1:pos:R:3 unique_starting_index=90 config_type=initial n_minim_iter=21 stress="-4.8572926368127215e-05 0.0003891860709277348 -0.00024752257600821803 0.0003891860709277348 -0.0008527958473457013 0.0006293029692304197 -0.00024752257600821803 0.0006293029692304197 -0.0002537122764017452" pbc="T T T"
Si       7.36910754       3.62724030       7.59899490
Si      -3.61152108       1.83784189       4.76330186
Si       5.92888017       8.32920882       5.17156176
Si      -2.80138665       1.90436341       4.12796778
Si       1.92856468       7.05193432      16.51986483
Si     -13.47760416       8.31403213      22.48769440
Si      -2.88136932       2.48600405       5.10448002
Si       1.89234430       8.51107965      15.13169955
Si     -13.83339595       9.99334281      21.99298928
Si       6.42753869       5.70416672       6.13160447
Si       1.13755930       5.63891209       3.03554138
Si       5.96557840       7.83371109       4.38099780
Si       4.72586776       9.50285203       2.66993044
Si       3.56054189       5.71931406      10.75862835
Si      -4.08475433       4.12409686       3.46209069
Si     -14.58248330      10.02228485      22.68300689
Si      -3.92084459       2.28183704       5.60776487
Si       1.73031047       8.96577278      15.94032861
Si      -3.20501516       6.68983791      15.31722129
Si      -8.39703215       5.12457433      14.56924267
Si       1.08423502      10.57191928      13.55200922
Si      11.53494977       2.18849315      -2.62623570
Si       7.40871406       5.89200953       5.69963946
Si       0.58923214       6.65386134       4.79785126
