12
Lattice="5.885053489219981 1.5314168521970344 -1.705658161098176 0.4109897641011069 8.01886027651423 0.454796374221325 -2.8853561385282225 -2.2439176295899057 11.413427643193103" Properties=species:S:1:pos:R:3 unique_starting_index=44 config_type=initial n_minim_iter=1 energy=-2129.510062932698 free_energy=-2129.510062932698 pbc="T T T"
Si      -1.42311460       1.86582732       9.35536964
Si      -0.49471554       4.59240127       3.92478150
Si      -1.62610740       4.49533503      10.10543066
Si       3.23278661       3.47272222       7.48788283
Si       3.97651887       6.09221683       7.49973838
Si       4.03449865       3.45405723       6.72382997
Si       6.42753520       5.64460032      -2.92948245
Si       1.63338642       4.02637543      -1.05442753
Si      -2.17633498      -0.80367421       9.95497684
Si       5.68340810       4.06022273       1.97938878
Si      -2.49038993      -0.72946727       8.93691700
Si      -1.45400816      -0.80479576       9.17178130
12
Lattice="5.885076177335231 1.531141549203489 -1.7058478167532627 0.41065640837956136 8.018769335058511 0.4549039343609623 -2.885706335655243 -2.243602330506202 11.413447724974528" Properties=species:S:1:pos:R:3 unique_starting_index=44 config_type=initial n_minim_iter=2 stress="7.891812614119671e-05 8.749446453166917e-06 7.607123711844767e-06 8.749446453166917e-06 -0.0006699114623800983 -4.605151106147084e-05 7.607123711844767e-06 -4.605151106147084e-05 1.8279573541536786e-05" pbc="T T T"
Si      -1.42359749       1.86609553       9.35546248
Si      -0.49497414       4.59247360       3.92484759
Si      -1.62680040       4.49542587      10.10540821
Si       3.23243029       3.47273487       7.48769453
Si       3.97596543       6.09210875       7.49980168
Si       4.03404427       3.45407686       6.72359390
Si       6.42744270       5.64418899      -2.92960023
Si       1.63330434       4.02624262      -1.05430139
Si      -2.17665811      -0.80340599       9.95495802
Si       5.68327802       4.06006312       1.97920268
Si      -2.49076241      -0.72949962       8.93696496
Si      -1.45423890      -0.80454023       9.17179598
12
Lattice="5.885065630232322 1.5311496063460974 -1.705856423776314 0.41063606716485757 8.018900726915096 0.4549186774442206 -2.8857208283191795 -2.2436096963608243 11.413441459214136" Properties=species:S:1:pos:R:3 unique_starting_index=44 config_type=initial n_minim_iter=3 stress="9.898297891783452e-05 5.144848790184727e-05 1.074401615315792e-05 5.144848790184727e-05 0.00020089155575023774 1.8467649714443742e-06 1.074401615315792e-05 1.8467649714443742e-06 4.2764793724356585e-05" pbc="T T T"
Si      -1.42362396       1.86615199       9.35546587
Si      -0.49498673       4.59256093       3.92485464
Si      -1.62683732       4.49552024      10.10541189
Si       3.23240368       3.47279994       7.48768315
Si       3.97592309       6.09221348       7.49980500
Si       4.03400930       3.45414425       6.72358176
Si       6.42742382       5.64425498      -2.92960009
Si       1.63329609       4.02630169      -1.05428919
Si      -2.17667187      -0.80339419       9.95495117
Si       5.68326082       4.06012646       1.97919478
Si      -2.49077946      -0.72950177       8.93696333
Si      -1.45424939      -0.80452783       9.17179244
12
Lattice="5.884330857685908 1.5306762975851365 -1.7059499659399942 0.4099645076059926 8.018932209520335 0.4550570243456871 -2.885625524894662 -2.243156265514934 11.412937693416461" Properties=species:S:1:pos:R:3 unique_starting_index=44 config_type=initial n_minim_iter=4 stress="-0.0004986641500134402 -3.8862004029594795e-05 0.00012499569267648055 -3.8862004029594795e-05 2.4594276734464488e-05 -1.5351561873730505e-05 0.00012499569267648055 -1.5351561873730505e-05 -0.00015193397472843342" pbc="T T T"
Si      -1.42404858       1.86649879       9.35515144
Si      -0.49527892       4.59278872       3.92477341
Si      -1.62745451       4.49591037      10.10521002
Si       3.23158040       3.47265183       7.48716069
Si       3.97459481       6.09208486       7.49937666
Si       4.03295686       3.45411677       6.72313869
Si       6.42633739       5.64355973      -2.92957006
Si       1.63285820       4.02615167      -1.05410943
Si      -2.17665965      -0.80304947       9.95445985
Si       5.68239285       4.05991338       1.97892971
Si      -2.49082166      -0.72923142       8.93662256
Si      -1.45428336      -0.80411891       9.17141842
12
Lattice="5.884924220523115 1.530330405988061 -1.7064054492733383 0.4095557925152453 8.018911876356873 0.45523319902757786 -2.886679263977923 -2.2427188066418124 11.413291315235366" Properties=species:S:1:pos:R:3 unique_starting_index=44 config_type=initial n_minim_iter=5 stress="7.901393657130808e-05 3.0226729117829394e-05 3.348791186722379e-05 3.0226729117829394e-05 -6.250213990545744e-07 -6.402441879393269e-05 3.348791186722379e-05 -6.402441879393269e-05 0.000194842077121522" pbc="T T T"
Si      -1.42512251       1.86683733       9.35551532
Si      -0.49571767       4.59298590       3.92498317
Si      -1.62873435       4.49625194      10.10574390
Si       3.23115066       3.47254132       7.48701123
Si       3.97392373       6.09203767       7.49928287
Si       4.03255112       3.45416875       6.72296033
Si       6.42682390       5.64296884      -2.92999302
Si       1.63291127       4.02602496      -1.05406426
Si      -2.17755397      -0.80274638       9.95473510
Si       5.68272303       4.05982731       1.97855269
Si      -2.49179017      -0.72893894       8.93694725
Si      -1.45504871      -0.80372482       9.17168970
12
Lattice="5.885079159273508 1.5299283383647388 -1.7065920948298534 0.4091023674089323 8.018935877243791 0.45559297565098095 -2.887467361850973 -2.241950503155602 11.41224404042279" Properties=species:S:1:pos:R:3 unique_starting_index=44 config_type=initial n_minim_iter=6 stress="0.0001365817203600751 2.1931962093106945e-05 -0.00019418814739859306 2.1931962093106945e-05 1.0946050582595422e-05 2.4181801821193376e-05 -0.00019418814739859306 2.4181801821193376e-05 -0.0003501517362285639" pbc="T T T"
Si      -1.42601673       1.86748483       9.35484623
Si      -0.49611313       4.59331589       3.92487354
Si      -1.62985515       4.49685597      10.10513087
Si       3.23046257       3.47263664       7.48615389
Si       3.97305548       6.09224949       7.49859222
Si       4.03192095       3.45437722       6.72214929
Si       6.42682002       5.64235858      -2.92988714
Si       1.63281227       4.02592106      -1.05382847
Si      -2.17826585      -0.80217843       9.95386878
Si       5.68263230       4.05980025       1.97808713
Si      -2.49251804      -0.72831139       8.93618677
Si      -1.45574376      -0.80312987       9.17085241
12
Lattice="5.884654720960507 1.5290470468537585 -1.706640261371384 0.408089810801382 8.018941828231707 0.4563630378693099 -2.8872807413959385 -2.2405223900218196 11.412615071371622" Properties=species:S:1:pos:R:3 unique_starting_index=44 config_type=initial n_minim_iter=7 stress="-9.781400741766724e-06 -0.00010324936447049384 -3.646871148541008e-05 -0.00010324936447049384 9.20579185009307e-06 6.669442414571082e-05 -3.646871148541008e-05 6.669442414571082e-05 6.658515812606026e-05" pbc="T T T"
Si      -1.42647356       1.86869534       9.35560084
Si      -0.49635946       4.59394086       3.92549069
Si      -1.63072694       4.49786386      10.10610865
Si       3.22968499       3.47261561       7.48663340
Si       3.97188787       6.09250254       7.49948875
Si       4.03115344       3.45462121       6.72260489
Si       6.42581217       5.64104894      -2.92960982
Si       1.63227206       4.02571595      -1.05341054
Si      -2.17821069      -0.80121047       9.95438371
Si       5.68222375       4.05967358       1.97829717
Si      -2.49260555      -0.72712195       8.93651467
Si      -1.45589065      -0.80207030       9.17125048
12
Lattice="5.884631423187784 1.5291862466212716 -1.7064838536347624 0.4082796534514461 8.018943368860644 0.45632892287638427 -2.8871059189846697 -2.2406263557097192 11.412222030418496" Properties=species:S:1:pos:R:3 unique_starting_index=44 config_type=initial n_minim_iter=8 stress="-5.559205765927205e-05 0.00023449152082719512 1.141682943387897e-06 0.00023449152082719512 -3.0734086390052704e-06 -0.00012621665901601286 1.141682943387897e-06 -0.00012621665901601286 -5.432128384782229e-05" pbc="T T T"
Si      -1.42630874       1.86868382       9.35529278
Si      -0.49586531       4.59406949       3.92534492
Si      -1.63053768       4.49770601      10.10578772
Si       3.22981028       3.47251263       7.48641511
Si       3.97211999       6.09255318       7.49931205
Si       4.03140038       3.45477881       6.72248451
Si       6.42579966       5.64100156      -2.92943344
Si       1.63230398       4.02577279      -1.05333117
Si      -2.17806970      -0.80148048       9.95413537
Si       5.68262893       4.06010509       1.97819207
Si      -2.49253633      -0.72731809       8.93619426
Si      -1.45591019      -0.80203534       9.17095826
12
Lattice="5.8846419872938815 1.5275235028937897 -1.7059883920651502 0.406408110991035 8.018965806046651 0.4575741119818938 -2.8863126747611725 -2.238195490930992 11.411656535186216" Properties=species:S:1:pos:R:3 unique_starting_index=44 config_type=initial n_minim_iter=9 stress="2.5387450838206475e-05 -5.899418293473772e-05 3.5466565488630676e-05 -5.899418293473772e-05 5.846908043692432e-06 7.243699023329122e-05 3.5466565488630676e-05 7.243699023329122e-05 -2.978798922879073e-05" pbc="T T T"
Si      -1.42661579       1.87041580       9.35541192
Si      -0.49592610       4.59529382       3.92599271
Si      -1.63157839       4.49951530      10.10639804
Si       3.22930055       3.47271841       7.48699419
Si       3.97122961       6.09265627       7.50030139
Si       4.03138274       3.45506268       6.72323407
Si       6.42466138       5.63859044      -2.92833542
Si       1.63127214       4.02517839      -1.05260202
Si      -2.17783002      -0.79977220       9.95411129
Si       5.68302024       4.05996614       1.97863663
Si      -2.49245276      -0.72568895       8.93596580
Si      -1.45597204      -0.80010094       9.17068922
12
Lattice="5.88464386201267 1.5271230022200721 -1.706231997000356 0.40581404517802516 8.019011456371247 0.45751277477084357 -2.8864401747087953 -2.2381170676365194 11.412393400744385" Properties=species:S:1:pos:R:3 unique_starting_index=44 config_type=initial n_minim_iter=10 stress="-3.417171893094505e-06 -0.00015606761359916128 -4.030205004100145e-05 -0.00015606761359916128 4.379366134525115e-05 -0.00020732973258612747 -4.030205004100145e-05 -0.00020732973258612747 -1.2018661567813277e-05" pbc="T T T"
Si      -1.42705500       1.87034245       9.35611932
Si      -0.49561957       4.59576996       3.92616359
Si      -1.63232061       4.49939055      10.10694401
Si       3.22886951       3.47230090       7.48730293
Si       3.97070984       6.09222820       7.50059841
Si       4.03106425       3.45479930       6.72347340
Si       6.42437484       5.63785156      -2.92880498
Si       1.63078851       4.02492143      -1.05275621
Si      -2.17836103      -0.79981223       9.95483030
Si       5.68341908       4.06027279       1.97828462
Si      -2.49292688      -0.72564391       8.93679840
Si      -1.45644106      -0.80005062       9.17121320
12
Lattice="5.884732505876279 1.527162898851536 -1.706041993685963 0.4062213698500762 8.01894020650401 0.4585946118148755 -2.8864004530960865 -2.236724009171217 11.412712234744731" Properties=species:S:1:pos:R:3 unique_starting_index=44 config_type=initial n_minim_iter=11 stress="-5.197086852724492e-05 7.080925219946565e-05 8.001297262329528e-06 7.080925219946565e-05 -2.5035854375064938e-05 0.00016483289255264 8.001297262329528e-06 0.00016483289255264 5.483308146343928e-05" pbc="T T T"
Si      -1.42690295       1.87139701       9.35695516
Si      -0.49475796       4.59654294       3.92696163
Si      -1.63207966       4.50050397      10.10809274
Si       3.22919963       3.47326752       7.48820705
Si       3.97117851       6.09323522       7.50190030
Si       4.03133856       3.45578747       6.72439233
Si       6.42462352       5.63750374      -2.92822919
Si       1.63080848       4.02463897      -1.05224080
Si      -2.17852481      -0.79872315       9.95527505
Si       5.68420571       4.06127875       1.97879014
Si      -2.49310799      -0.72466341       8.93740051
Si      -1.45656727      -0.79899120       9.17160537
12
Lattice="5.884959744639863 1.527110430445968 -1.7059783728555378 0.4061789378970386 8.018945598738828 0.45862800240393536 -2.8863176314820276 -2.2366792003132803 11.412927886927127" Properties=species:S:1:pos:R:3 unique_starting_index=44 config_type=initial n_minim_iter=12 stress="3.129790890772253e-05 -8.814308245539706e-05 4.413291888000632e-05 -8.814308245539706e-05 7.023153600734455e-06 -5.317783022313617e-05 4.413291888000632e-05 -5.317783022313617e-05 -2.4750028883155804e-05" pbc="T T T"
Si      -1.42693562       1.87135175       9.35713395
Si      -0.49399633       4.59710377       3.92701796
Si      -1.63221009       4.50039137      10.10836685
Si       3.22954586       3.47322606       7.48839444
Si       3.97143974       6.09325324       7.50217257
Si       4.03153960       3.45569130       6.72474609
Si       6.42470407       5.63737504      -2.92829607
Si       1.63064198       4.02435630      -1.05215327
Si      -2.17869720      -0.79897206       9.95543283
Si       5.68513901       4.06192880       1.97866042
Si      -2.49342174      -0.72468345       8.93781135
Si      -1.45671776      -0.79920231       9.17183490
12
Lattice="5.885066054055486 1.5275534138885551 -1.706150200632368 0.40695258795261113 8.018882704840555 0.4591784570274928 -2.886834072013036 -2.236163686254196 11.413521258782314" Properties=species:S:1:pos:R:3 unique_starting_index=44 config_type=initial n_minim_iter=13 stress="1.1642224292235778e-05 -1.7581103971517915e-05 1.678549892290175e-05 -1.7581103971517915e-05 -1.779126228843029e-05 4.129844614480008e-05 1.678549892290175e-05 4.129844614480008e-05 5.709871007467554e-06" pbc="T T T"
Si      -1.42707059       1.87166176       9.35782224
Si      -0.49288155       4.59789156       3.92751253
Si      -1.63229748       4.50046982      10.10939809
Si       3.22967709       3.47404211       7.48891544
Si       3.97166396       6.09387958       7.50290015
Si       4.03152809       3.45632686       6.72536065
Si       6.42503377       5.63775686      -2.92834939
Si       1.63086615       4.02404939      -1.05195094
Si      -2.17913740      -0.79866136       9.95603392
Si       5.68607151       4.06323704       1.97861069
Si      -2.49402648      -0.72430567       8.93844898
Si      -1.45727374      -0.79884069       9.17242477
12
Lattice="5.885012962448429 1.528602810271874 -1.7066579955720034 0.408464823433203 8.018782489745824 0.4595207976280587 -2.8878873712593527 -2.236196656663053 11.414546105287954" Properties=species:S:1:pos:R:3 unique_starting_index=44 config_type=initial n_minim_iter=14 stress="-3.3276860265790804e-05 -1.9627880650716322e-05 -4.8692296221565364e-05 -1.9627880650716322e-05 -2.774410842817823e-05 1.9971168085032623e-05 -4.8692296221565364e-05 1.9971168085032623e-05 2.6087411174303182e-05" pbc="T T T"
Si      -1.42723765       1.87122645       9.35892622
Si      -0.49085907       4.59915681       3.92794171
Si      -1.63255112       4.50020902      10.11064827
Si       3.22944142       3.47502638       7.48935472
Si       3.97178640       6.09479110       7.50357079
Si       4.03119933       3.45699013       6.72575262
Si       6.42532560       5.63868662      -2.92883033
Si       1.63127047       4.02346361      -1.05201576
Si      -2.17984782      -0.79889445       9.95705444
Si       5.68745475       4.06552169       1.97806673
Si      -2.49502480      -0.72445985       8.93930585
Si      -1.45837339      -0.79908645       9.17334119
12
Lattice="5.885045627222028 1.529672654639175 -1.7063491689331132 0.40995402839661654 8.01868636545848 0.4594528085597869 -2.887769650182464 -2.2367681019838 11.413835409238759" Properties=species:S:1:pos:R:3 unique_starting_index=44 config_type=initial n_minim_iter=15 stress="-2.7087489290088003e-05 1.0580814815350651e-07 1.137066802717142e-05 1.0580814815350651e-07 -2.747168663764038e-05 -2.756862984257124e-05 1.137066802717142e-05 -2.756862984257124e-05 -6.232928275916979e-05" pbc="T T T"
Si      -1.42657041       1.87062803       9.35838862
Si      -0.48876332       4.60019001       3.92758612
Si      -1.63163023       4.49954777      10.11011864
Si       3.22996076       3.47562219       7.48903736
Si       3.97295954       6.09501843       7.50326505
Si       4.03186156       3.45753706       6.72553703
Si       6.42560691       5.63957503      -2.92836421
Si       1.63160629       4.02317620      -1.05180015
Si      -2.17955930      -0.79945501       9.95653492
Si       5.68897423       4.06739080       1.97780969
Si      -2.49487100      -0.72498024       8.93877219
Si      -1.45816566      -0.80005424       9.17272649
12
Lattice="5.8850244808074255 1.5307805659915141 -1.7061391008636464 0.4116373300454938 8.018553427385616 0.459881794323038 -2.8879454170043544 -2.2366876118955936 11.413317320019729" Properties=species:S:1:pos:R:3 unique_starting_index=44 config_type=initial n_minim_iter=16 stress="-0.0001076405841972531 3.283103324649567e-05 -0.0001536535561462566 3.283103324649567e-05 -2.071174788251977e-05 9.202640699587855e-06 -0.0001536535561462566 9.202640699587855e-06 -6.233122377482428e-06" pbc="T T T"
Si      -1.42631924       1.87022625       9.35818439
Si      -0.48643769       4.60185339       3.92758300
Si      -1.63082741       4.49911740      10.11019727
Si       3.23010622       3.47662624       7.48909391
Si       3.97403956       6.09606692       7.50334413
Si       4.03232610       3.45845018       6.72559511
Si       6.42597770       5.64043252      -2.92775013
Si       1.63184115       4.02287358      -1.05130266
Si      -2.17957653      -0.79953705       9.95618410
Si       5.69048400       4.06968766       1.97767763
Si      -2.49468439      -0.72512825       8.93855873
Si      -1.45798896      -0.80041487       9.17212459
12
Lattice="5.885269248216325 1.5313828638701616 -1.7049247483616112 0.4126824049840746 8.018484359635675 0.460211243601069 -2.8864035365124683 -2.2365697263519917 11.411823705751987" Properties=species:S:1:pos:R:3 unique_starting_index=44 config_type=initial n_minim_iter=17 stress="9.461703445259279e-05 4.958935023742838e-06 0.00011647399838014281 4.958935023742838e-06 -5.0994568706428214e-06 2.1317246857641522e-05 0.00011647399838014281 2.1317246857641522e-05 -0.0001956213937267968" pbc="T T T"
Si      -1.42492509       1.86988237       9.35741819
Si      -0.48429142       4.60323392       3.92724446
Si      -1.62890255       4.49894120      10.10928073
Si       3.23167398       3.47723474       7.48924228
Si       3.97631454       6.09649353       7.50368132
Si       4.03396412       3.45894402       6.72591029
Si       6.42620628       5.64090694      -2.92615379
Si       1.63183288       4.02259593      -1.05067531
Si      -2.17807157      -0.79976909       9.95493515
Si       5.69227043       4.07122737       1.97843017
Si      -2.49326819      -0.72511536       8.93747231
Si      -1.45641403      -0.80050280       9.17098977
12
Lattice="5.884970479081046 1.5317926972454778 -1.7054395491376249 0.41321025605379036 8.018467982523614 0.46030028582976823 -2.8869331658267643 -2.236688779416226 11.413367978650175" Properties=species:S:1:pos:R:3 unique_starting_index=44 config_type=initial n_minim_iter=18 stress="-4.588139111389287e-05 1.174552327894485e-05 -9.454394057552859e-05 1.174552327894485e-05 8.774036027165925e-06 -3.7993073605656467e-06 -9.454394057552859e-05 -3.7993073605656467e-06 -1.3272824493522581e-05" pbc="T T T"
Si      -1.42554679       1.86958752       9.35873947
Si      -0.48345976       4.60425153       3.92766631
Si      -1.62906925       4.49873687      10.11059107
Si       3.23106782       3.47749751       7.49010277
Si       3.97611370       6.09657791       7.50447530
Si       4.03340416       3.45914303       6.72665076
Si       6.42599611       5.64122213      -2.92684097
Si       1.63174699       4.02238031      -1.05083525
Si      -2.17844929      -0.80016878       9.95624363
Si       5.69230716       4.07230654       1.97832270
Si      -2.49346220      -0.72531356       8.93870569
Si      -1.45678982      -0.80075600       9.17213577
12
Lattice="5.884848892451057 1.5322110575906518 -1.7051852338736657 0.41389784664487206 8.018437166998353 0.46063965748903385 -2.886267894695323 -2.236539450649819 11.414440395963759" Properties=species:S:1:pos:R:3 unique_starting_index=44 config_type=initial n_minim_iter=19 stress="4.221424277027652e-05 3.948254817690968e-06 -4.420772896676537e-06 3.948254817690968e-06 2.286031895880216e-05 4.64364936496788e-06 -4.420772896676537e-06 4.64364936496788e-06 -1.319868820798394e-05" pbc="T T T"
Si      -1.42526306       1.86950771       9.36005775
Si      -0.48180150       4.60601101       3.92801269
Si      -1.62795664       4.49848538      10.11177735
Si       3.23157024       3.47783603       7.49141971
Si       3.97726619       6.09691068       7.50577379
Si       4.03389275       3.45942470       6.72808439
Si       6.42566456       5.64131561      -2.92664511
Si       1.63163638       4.02193115      -1.05087177
Si      -2.17767639      -0.80020910       9.95714394
Si       5.69297187       4.07395369       1.97908226
Si      -2.49278491      -0.72550647       8.93951528
Si      -1.45615935      -0.80098977       9.17317538
12
Lattice="5.884429671860783 1.5325548364599528 -1.7051308286115316 0.41445703210013196 8.018374034897203 0.4609826289598031 -2.8858976802355607 -2.2363030717060104 11.415309026541848" Properties=species:S:1:pos:R:3 unique_starting_index=44 config_type=initial n_minim_iter=20 stress="2.2867676721668736e-05 -2.4510117966644634e-06 1.885902737235522e-05 -2.4510117966644634e-06 2.658053172438962e-05 3.4835568350349827e-06 1.885902737235522e-05 3.4835568350349827e-06 3.793035762742042e-05" pbc="T T T"
Si      -1.42503384       1.86931026       9.36089299
Si      -0.48027828       4.60802230       3.92820247
Si      -1.62728324       4.49830006      10.11271070
Si       3.23141765       3.47803585       7.49223258
Si       3.97777597       6.09711700       7.50682080
Si       4.03396691       3.45956696       6.72907994
Si       6.42494009       5.64123271      -2.92642533
Si       1.63173941       4.02136524      -1.05080488
Si      -2.17743244      -0.80029766       9.95779713
Si       5.69291457       4.07585190       1.97972609
Si      -2.49252111      -0.72554731       8.94029106
Si      -1.45571130      -0.80107146       9.17407147
12
Lattice="5.883909941591517 1.5332883248168203 -1.705355861927845 0.41561357806920873 8.018236287633995 0.4615862633480274 -2.8862672743743056 -2.2358438912344676 11.416037658731055" Properties=species:S:1:pos:R:3 unique_starting_index=44 config_type=initial n_minim_iter=21 stress="-4.930190126410226e-05 -2.2388992926643223e-05 -5.471278732704189e-05 -2.2388992926643223e-05 2.2295944885485432e-05 2.090302033343236e-05 -5.471278732704189e-05 2.090302033343236e-05 0.00012313313125317477" pbc="T T T"
Si      -1.42512598       1.86894342       9.36203317
Si      -0.47757552       4.61211987       3.92814878
Si      -1.62692561       4.49778547      10.11395604
Si       3.23070897       3.47866575       7.49281838
Si       3.97798605       6.09743176       7.50746195
Si       4.03369439       3.45998567       6.72962892
Si       6.42441372       5.64133506      -2.92630845
Si       1.63205515       4.02045480      -1.05086266
Si      -2.17804929      -0.80083929       9.95833143
Si       5.69254858       4.07991592       1.98041661
Si      -2.49278060      -0.72587281       8.94100541
Si      -1.45581793      -0.80150566       9.17488046
