18
Lattice="4.455769168041731 0.0 0.0 0.0 11.826097554755805 -1.5236004344676537e-15 0.0 1.602780470372824e-15 12.440688367294387" Properties=species:S:1:pos:R:3 unique_starting_index=55 config_type=initial n_minim_iter=1 energy=-2930.642450268613 free_energy=-2930.642450268613 pbc="T T T"
Si       1.23466765       9.11039136       9.14267519
Si       3.22110151       9.11039136       3.29801318
Si       3.22110151       9.11039136       9.14267519
Si       1.23466765       9.11039136       3.29801318
Si       3.22350547       9.86462272      11.44783797
Si       1.23226370       9.86462272       0.99285040
Si       1.23226370       9.86462272      11.44783797
Si       3.22350547       9.86462272       0.99285040
Si       3.45168126       8.27764837       5.10053733
Si       1.00408791       8.27764837       7.34015104
Si       1.00408791       8.27764837       5.10053733
Si       3.45168126       8.27764837       7.34015104
Si       1.22506706       4.91782502      11.42781026
Si       3.23070211       4.91782502       1.01287811
Si       3.23070211       4.91782502      11.42781026
Si       1.22506706       4.91782502       1.01287811
Si       2.22788458       3.38219449      10.61923823
Si       2.22788458       3.38219449       1.82145014
18
Lattice="4.445512295244826 0.0 0.0 0.0 11.770867429989172 -1.5159941222246553e-15 0.0 1.6029521429317378e-15 12.437874498800362" Properties=species:S:1:pos:R:3 unique_starting_index=55 config_type=initial n_minim_iter=2 stress="-0.031138397783271658 8.102655694640552e-17 -3.2147295194636775e-17 8.102655694640552e-17 0.007322395329744138 -8.375587254881076e-17 -3.2147295194636775e-17 -8.375587254881076e-17 -0.006337543259407356" pbc="T T T"
Si       1.23136131       9.06780681       9.14057290
Si       3.21415099       9.06780681       3.29730160
Si       3.21415099       9.06780681       9.14057290
Si       1.23136131       9.06780681       3.29730160
Si       3.21641613       9.81855012      11.44477386
Si       1.22909617       9.81855012       0.99310064
Si       1.22909617       9.81855012      11.44477386
Si       3.21641613       9.81855012       0.99310064
Si       3.44524662       8.23907200       5.09881361
Si       1.00026568       8.23907200       7.33906089
Si       1.00026568       8.23907200       5.09881361
Si       3.44524662       8.23907200       7.33906089
Si       1.22280991       4.89472355      11.42590619
Si       3.22270239       4.89472355       1.01196831
Si       3.22270239       4.89472355      11.42590619
Si       1.22280991       4.89472355       1.01196831
Si       2.22275615       3.36658437      10.61720949
Si       2.22275615       3.36658437       1.82066501
18
Lattice="4.468261592951241 0.0 0.0 0.0 11.642592756895128 -1.501169074898028e-15 0.0 1.603486354850664e-15 12.456452104347076" Properties=species:S:1:pos:R:3 unique_starting_index=55 config_type=initial n_minim_iter=3 stress="0.007551467647378574 7.476312253109629e-17 -9.56626041271344e-18 7.476312253109629e-17 0.002344033920339527 -1.0271095263796557e-16 -9.56626041271344e-18 -1.0271095263796557e-16 -0.0029499138026799804" pbc="T T T"
Si       1.23614505       8.96892706       9.15420987
Si       3.23211654       8.96892706       3.30224223
Si       3.23211654       8.96892706       9.15420987
Si       1.23614505       8.96892706       3.30224223
Si       3.23399619       9.71157297      11.46032260
Si       1.23426541       9.71157297       0.99612950
Si       1.23426541       9.71157297      11.46032260
Si       3.23399619       9.71157297       0.99612950
Si       3.46624966       8.14949157       5.10469001
Si       1.00201194       8.14949157       7.35176209
Si       1.00201194       8.14949157       5.10469001
Si       3.46624966       8.14949157       7.35176209
Si       1.22953903       4.84141004      11.44555246
Si       3.23872256       4.84141004       1.01089965
Si       3.23872256       4.84141004      11.44555246
Si       1.22953903       4.84141004       1.01089965
Si       2.23413080       3.32951009      10.63373385
Si       2.23413080       3.32951009       1.82271826
18
Lattice="4.473887445975801 0.0 0.0 0.0 11.61739729084423 -1.513842300909337e-15 0.0 1.591994850054527e-15 12.502738215244976" Properties=species:S:1:pos:R:3 unique_starting_index=55 config_type=initial n_minim_iter=4 stress="0.02090068783732039 1.3738355835189908e-16 4.007608960794761e-17 1.3738355835189908e-16 0.0029453545845073035 -1.956642564309186e-16 4.007608960794761e-17 -1.956642564309186e-16 0.02064909712505369" pbc="T T T"
Si       1.23580856       8.94960344       9.18852507
Si       3.23807889       8.94960344       3.31421314
Si       3.23807889       8.94960344       9.18852507
Si       1.23580856       8.94960344       3.31421314
Si       3.23843149       9.69068067      11.50094719
Si       1.23545596       9.69068067       1.00179103
Si       1.23545596       9.69068067      11.50094719
Si       3.23843149       9.69068067       1.00179103
Si       3.47407636       8.13200570       5.12177220
Si       0.99981108       8.13200570       7.38096602
Si       0.99981108       8.13200570       5.12177220
Si       3.47407636       8.13200570       7.38096602
Si       1.23260561       4.83185204      11.49249994
Si       3.24128183       4.83185204       1.01023828
Si       3.24128183       4.83185204      11.49249994
Si       1.23260561       4.83185204       1.01023828
Si       2.23694372       3.31974562      10.67287824
Si       2.23694372       3.31974562       1.82985998
18
Lattice="4.479376979534404 0.0 0.0 0.0 11.596997464411167 -1.5107319583003274e-15 0.0 1.5882101194251579e-15 12.4696395127405" Properties=species:S:1:pos:R:3 unique_starting_index=55 config_type=initial n_minim_iter=5 stress="0.03259244763030264 1.0459259624768651e-16 1.8068393073907947e-17 1.0459259624768651e-16 0.002111773039272135 -3.969462563042064e-16 1.8068393073907947e-17 -3.969462563042064e-16 -0.0028977570387894442" pbc="T T T"
Si       1.23639291       8.93395974       9.16449488
Si       3.24298407       8.93395974       3.30514464
Si       3.24298407       8.93395974       9.16449488
Si       1.23639291       8.93395974       3.30514464
Si       3.24193330       9.67378417      11.47000449
Si       1.23744368       9.67378417       0.99963502
Si       1.23744368       9.67378417      11.47000449
Si       3.24193330       9.67378417       0.99963502
Si       3.48020285       8.11787952       5.10639541
Si       0.99917413       8.11787952       7.36324410
Si       0.99917413       8.11787952       5.10639541
Si       3.48020285       8.11787952       7.36324410
Si       1.23509595       4.82433028      11.46641785
Si       3.24428103       4.82433028       1.00322166
Si       3.24428103       4.82433028      11.46641785
Si       1.23509595       4.82433028       1.00322166
Si       2.23968849       3.31130053      10.64420000
Si       2.23968849       3.31130053       1.82543951
18
Lattice="4.48149906874948 0.0 0.0 0.0 11.501825446069489 -1.500505005081527e-15 0.0 1.586783058782435e-15 12.47412953145761" Properties=species:S:1:pos:R:3 unique_starting_index=55 config_type=initial n_minim_iter=6 stress="0.0003944304164357266 1.3234942433955737e-16 -4.731212737319263e-18 1.3234942433955737e-16 -0.0025206001244351237 -3.269453815876737e-16 -4.731212737319263e-18 -3.269453815876737e-16 -0.0027707997011151573" pbc="T T T"
Si       1.23890151       8.86082965       9.16871321
Si       3.24259756       8.86082965       3.30541632
Si       3.24259756       8.86082965       9.16871321
Si       1.23890151       8.86082965       3.30541632
Si       3.23945383       9.59476394      11.47188136
Si       1.24204524       9.59476394       1.00224817
Si       1.24204524       9.59476394      11.47188136
Si       3.23945383       9.59476394       1.00224817
Si       3.48302942       8.05172734       5.10259167
Si       0.99846965       8.05172734       7.37153786
Si       0.99846965       8.05172734       5.10259167
Si       3.48302942       8.05172734       7.37153786
Si       1.23673617       4.78758202      11.48265987
Si       3.24476290       4.78758202       0.99146966
Si       3.24476290       4.78758202      11.48265987
Si       1.23673617       4.78758202       0.99146966
Si       2.24074953       3.27639130      10.64697219
Si       2.24074953       3.27639130       1.82715734
18
Lattice="4.487014530010409 0.0 0.0 0.0 11.449227613562927 -1.5062223925005431e-15 0.0 1.5795953695419701e-15 12.52182986534596" Properties=species:S:1:pos:R:3 unique_starting_index=55 config_type=initial n_minim_iter=7 stress="-0.006926887522256535 2.1416354668685676e-15 3.0219113495805197e-17 2.1416354668685676e-15 0.002033291015329103 -3.0590231148772607e-15 3.0219113495805197e-17 -3.0590231148772607e-15 -0.0034853528208296843" pbc="T T T"
Si       1.24477082       8.82063837       9.20522868
Si       3.24224371       8.82063837       3.31660118
Si       3.24224371       8.82063837       9.20522868
Si       1.24477082       8.82063837       3.31660118
Si       3.24503462       9.55149532      11.52059724
Si       1.24197991       9.55149532       1.00123262
Si       1.24197991       9.55149532      11.52059724
Si       3.24503462       9.55149532       1.00123262
Si       3.48820727       8.01541156       5.11605557
Si       0.99880726       8.01541156       7.40577429
Si       0.99880726       8.01541156       5.11605557
Si       3.48820727       8.01541156       7.40577429
Si       1.24297983       4.76794726      11.53176273
Si       3.24403470       4.76794726       0.99006713
Si       3.24403470       4.76794726      11.53176273
Si       1.24297983       4.76794726       0.99006713
Si       2.24350727       3.25400613      10.68709077
Si       2.24350727       3.25400613       1.83473910
18
Lattice="4.491925337438738 0.0 0.0 0.0 11.399121756999216 -1.5267404395274936e-15 0.0 1.5593647637926477e-15 12.589674262688648" Properties=species:S:1:pos:R:3 unique_starting_index=55 config_type=initial n_minim_iter=8 stress="-0.01634208456824599 2.9826270622334848e-15 6.365232650250338e-17 2.9826270622334848e-15 0.001977123456798358 -3.301519962641755e-15 6.365232650250338e-17 -3.301519962641755e-15 -0.0042021712034512205" pbc="T T T"
Si       1.24504320       8.78254815       9.25731014
Si       3.24688214       8.78254815       3.33236412
Si       3.24688214       8.78254815       9.25731014
Si       1.24504320       8.78254815       3.33236412
Si       3.24468541       9.51051068      11.58943323
Si       1.24723993       9.51051068       1.00024103
Si       1.24723993       9.51051068      11.58943323
Si       3.24468541       9.51051068       1.00024103
Si       3.49253521       7.98090662       5.13767517
Si       0.99939013       7.98090662       7.45199909
Si       0.99939013       7.98090662       5.13767517
Si       3.49253521       7.98090662       7.45199909
Si       1.24724181       4.74784479      11.59560358
Si       3.24468352       4.74784479       0.99407069
Si       3.24468352       4.74784479      11.59560358
Si       1.24724181       4.74784479       0.99407069
Si       2.24596267       3.23443516      10.74595570
Si       2.24596267       3.23443516       1.84371856
18
Lattice="4.486865706697679 0.0 0.0 0.0 11.387486708930867 -1.5389804832201463e-15 0.0 1.549419971725494e-15 12.623010703385274" Properties=species:S:1:pos:R:3 unique_starting_index=55 config_type=initial n_minim_iter=9 stress="-0.008904144613145589 3.0263767150151953e-15 -1.4442721655254622e-16 3.0263767150151953e-15 0.0014099143033407173 -3.1026122566919853e-15 -1.4442721655254622e-16 -3.1026122566919853e-15 -0.01016633926416379" pbc="T T T"
Si       1.24453563       8.77491284       9.28810746
Si       3.24233008       8.77491284       3.33490325
Si       3.24233008       8.77491284       9.28810746
Si       1.24453563       8.77491284       3.33490325
Si       3.24134389       9.50256510      11.62398459
Si       1.24552182       9.50256510       0.99902611
Si       1.24552182       9.50256510      11.62398459
Si       3.24134389       9.50256510       0.99902611
Si       3.49039907       7.97420885       5.14173464
Si       0.99646663       7.97420885       7.48127607
Si       0.99646663       7.97420885       5.14173464
Si       3.49039907       7.97420885       7.48127607
Si       1.24079410       4.74053436      11.62440825
Si       3.24607161       4.74053436       0.99860245
Si       3.24607161       4.74053436      11.62440825
Si       1.24079410       4.74053436       0.99860245
Si       2.24343285       3.22698423      10.77999504
Si       2.24343285       3.22698423       1.84301566
18
Lattice="4.482735541740538 0.0 0.0 0.0 11.360458231676626 -1.5539729669312916e-15 0.0 1.5328898791304187e-15 12.643790550277116" Properties=species:S:1:pos:R:3 unique_starting_index=55 config_type=initial n_minim_iter=10 stress="-0.006652396254736938 2.467150624816969e-16 1.8981980435323187e-17 2.467150624816969e-16 -0.007716052726007826 -4.295044784777894e-16 1.8981980435323187e-17 -4.295044784777894e-16 0.00808984930663052" pbc="T T T"
Si       1.24145109       8.75580647       9.31221781
Si       3.24128445       8.75580647       3.33157274
Si       3.24128445       8.75580647       9.31221781
Si       1.24145109       8.75580647       3.33157274
Si       3.24059332       9.48230146      11.64407328
Si       1.24214222       9.48230146       0.99971727
Si       1.24214222       9.48230146      11.64407328
Si       3.24059332       9.48230146       0.99971727
Si       3.48372287       7.95743755       5.13843307
Si       0.99901267       7.95743755       7.50535748
Si       0.99901267       7.95743755       5.13843307
Si       3.48372287       7.95743755       7.50535748
Si       1.23862718       4.72525590      11.64054953
Si       3.24410836       4.72525590       1.00324102
Si       3.24410836       4.72525590      11.64054953
Si       1.23862718       4.72525590       1.00324102
Si       2.24136777       3.21504288      10.80610072
Si       2.24136777       3.21504288       1.83768983
18
Lattice="4.4781636235978235 0.0 0.0 0.0 11.37966530372378 -1.5698908871525014e-15 0.0 1.5167954972347449e-15 12.63055197678196" Properties=species:S:1:pos:R:3 unique_starting_index=55 config_type=initial n_minim_iter=11 stress="0.030342583979395092 3.0976657755556576e-16 -2.9634097170317613e-17 3.0976657755556576e-16 -0.007333875226593736 -4.0073234568439795e-16 -2.9634097170317613e-17 -4.0073234568439795e-16 0.005735874678932669" pbc="T T T"
Si       1.23794852       8.77238883       9.31213116
Si       3.24021511       8.77238883       3.31842082
Si       3.24021511       8.77238883       9.31213116
Si       1.23794852       8.77238883       3.31842082
Si       3.24043317       9.50088738      11.62979197
Si       1.23773046       9.50088738       1.00076000
Si       1.23773046       9.50088738      11.62979197
Si       3.24043317       9.50088738       1.00076000
Si       3.47654070       7.97334791       5.12212934
Si       1.00162293       7.97334791       7.50842263
Si       1.00162293       7.97334791       5.12212934
Si       3.47654070       7.97334791       7.50842263
Si       1.23692322       4.72862348      11.62970235
Si       3.24124040       4.72862348       1.00084962
Si       3.24124040       4.72862348      11.62970235
Si       1.23692322       4.72862348       1.00084962
Si       2.23908181       3.21614137      10.80356247
Si       2.23908181       3.21614137       1.82698951
18
Lattice="4.4425066087767116 0.0 0.0 0.0 11.5103477664447 -1.592590615739131e-15 0.0 1.508986364297588e-15 12.62778360671196" Properties=species:S:1:pos:R:3 unique_starting_index=55 config_type=initial n_minim_iter=12 stress="0.013763859259015658 2.524599322093371e-15 -5.494915825543414e-18 2.524599322093371e-15 0.01062354389853263 -2.533131641220199e-15 -5.494915825543414e-18 -2.533131641220199e-15 0.011319428785223073" pbc="T T T"
Si       1.22027058       8.87809033       9.33860261
Si       3.22223603       8.87809033       3.28918099
Si       3.22223603       8.87809033       9.33860261
Si       1.22027058       8.87809033       3.28918099
Si       3.22189912       9.61708881      11.62608040
Si       1.22060749       9.61708881       1.00170320
Si       1.22060749       9.61708881      11.62608040
Si       3.22189912       9.61708881       1.00170320
Si       3.44485410       8.07236172       5.09494951
Si       0.99765251       8.07236172       7.53283410
Si       0.99765251       8.07236172       5.09494951
Si       3.44485410       8.07236172       7.53283410
Si       1.21894051       4.77382897      11.62688878
Si       3.22356610       4.77382897       1.00089483
Si       3.22356610       4.77382897      11.62688878
Si       1.21894051       4.77382897       1.00089483
Si       2.22125330       3.23226131      10.82329224
Si       2.22125330       3.23226131       1.80449137
18
Lattice="4.439689865073107 0.0 0.0 0.0 11.47587066389431 -1.6089766783322749e-15 0.0 1.4927734920352854e-15 12.666625650406834" Properties=species:S:1:pos:R:3 unique_starting_index=55 config_type=initial n_minim_iter=13 stress="-0.0013939085076033935 5.060191460977677e-15 -6.769745763691853e-17 5.060191460977677e-15 0.004659195871183449 -6.351705482535594e-15 -6.769745763691853e-17 -6.351705482535594e-15 0.0008034318696307513" pbc="T T T"
Si       1.21992609       8.85347460       9.37717906
Si       3.21976378       8.85347460       3.28944659
Si       3.21976378       8.85347460       9.37717906
Si       1.21992609       8.85347460       3.28944659
Si       3.22030330       9.59094880      11.66608423
Si       1.21938657       9.59094880       1.00054142
Si       1.21938657       9.59094880      11.66608423
Si       3.22030330       9.59094880       1.00054142
Si       3.44139704       8.05008076       5.10685761
Si       0.99829282       8.05008076       7.55976804
Si       0.99829282       8.05008076       5.10685761
Si       3.44139704       8.05008076       7.55976804
Si       1.21861702       4.75521075      11.66739122
Si       3.22107285       4.75521075       0.99923443
Si       3.22107285       4.75521075      11.66739122
Si       1.21861702       4.75521075       0.99923443
Si       2.21984493       3.21813508      10.86601438
Si       2.21984493       3.21813508       1.80061127
18
Lattice="4.4401070921805985 0.0 0.0 0.0 11.433352272455473 -1.6221633706794296e-15 0.0 1.4762976936848282e-15 12.685798534163157" Properties=species:S:1:pos:R:3 unique_starting_index=55 config_type=initial n_minim_iter=14 stress="-0.009149124950674237 6.94972812548579e-15 2.3346068890217307e-17 6.94972812548579e-15 -0.0032276011079202713 -5.748542410536105e-15 2.3346068890217307e-17 -5.748542410536105e-15 -0.009959392015209022" pbc="T T T"
Si       1.22041119       8.81974087       9.39333163
Si       3.21969590       8.81974087       3.29246690
Si       3.21969590       8.81974087       9.39333163
Si       1.22041119       8.81974087       3.29246690
Si       3.22006605       9.55775961      11.68609778
Si       1.22004104       9.55775961       0.99970076
Si       1.22004104       9.55775961      11.68609778
Si       3.22006605       9.55775961       0.99970076
Si       3.44037567       8.02439757       5.10793016
Si       0.99973142       8.02439757       7.57786837
Si       0.99973142       8.02439757       5.10793016
Si       3.44037567       8.02439757       7.57786837
Si       1.21951524       4.73578140      11.68594522
Si       3.22059185       4.73578140       0.99985332
Si       3.22059185       4.73578140      11.68594522
Si       1.21951524       4.73578140       0.99985332
Si       2.22005355       3.19872074      10.88924755
Si       2.22005355       3.19872074       1.79655098
18
Lattice="4.43628904272916 0.0 0.0 0.0 11.410589186184447 -1.6428665775081614e-15 0.0 1.457407330446667e-15 12.726178973419511" Properties=species:S:1:pos:R:3 unique_starting_index=55 config_type=initial n_minim_iter=15 stress="-0.0026906516402202527 6.642796382793628e-15 -6.473763035176918e-17 6.642796382793628e-15 -0.002875214680819239 -4.414729417071218e-15 -6.473763035176918e-17 -4.414729417071218e-15 -0.00294140355451381" pbc="T T T"
Si       1.21809933       8.80224785       9.43015213
Si       3.21818971       8.80224785       3.29602684
Si       3.21818971       8.80224785       9.43015213
Si       1.21809933       8.80224785       3.29602684
Si       3.21790677       9.54181058      11.72654998
Si       1.21838228       9.54181058       0.99962900
Si       1.21838228       9.54181058      11.72654998
Si       3.21790677       9.54181058       0.99962900
Si       3.43580516       8.01327148       5.11849790
Si       1.00048388       8.01327148       7.60768107
Si       1.00048388       8.01327148       5.11849790
Si       3.43580516       8.01327148       7.60768107
Si       1.21782010       4.72336527      11.72529399
Si       3.21846894       4.72336527       1.00088499
Si       3.21846894       4.72336527      11.72529399
Si       1.21782010       4.72336527       1.00088499
Si       2.21814452       3.18233450      10.93442973
Si       2.21814452       3.18233450       1.79174924
18
Lattice="4.431466476932356 0.0 0.0 0.0 11.4052303041775 -1.6691111184374764e-15 0.0 1.4329898339798615e-15 12.753253283247469" Properties=species:S:1:pos:R:3 unique_starting_index=55 config_type=initial n_minim_iter=16 stress="-0.0003314568236886216 7.110988988018532e-15 -4.22801844834178e-18 7.110988988018532e-15 7.072780163553333e-05 4.4565757315245616e-15 -4.22801844834178e-18 4.4565757315245616e-15 0.010740687759901488" pbc="T T T"
Si       1.21555690       8.79778090       9.45527446
Si       3.21590958       8.79778090       3.29797882
Si       3.21590958       8.79778090       9.45527446
Si       1.21555690       8.79778090       3.29797882
Si       3.21539113       9.54004782      11.75346017
Si       1.21607535       9.54004782       0.99979312
Si       1.21607535       9.54004782      11.75346017
Si       3.21539113       9.54004782       0.99979312
Si       3.43103438       8.01439507       5.12590425
Si       1.00043209       8.01439507       7.62734903
Si       1.00043209       8.01439507       5.12590425
Si       3.43103438       8.01439507       7.62734903
Si       1.21522442       4.71783304      11.75260332
Si       3.21624206       4.71783304       1.00064996
Si       3.21624206       4.71783304      11.75260332
Si       1.21522442       4.71783304       1.00064996
Si       2.21573324       3.17292311      10.96839039
Si       2.21573324       3.17292311       1.78486290
18
Lattice="4.419131999951196 0.0 0.0 0.0 11.412241092264182 -1.688652787884181e-15 0.0 1.4212306415900283e-15 12.808250876056142" Properties=species:S:1:pos:R:3 unique_starting_index=55 config_type=initial n_minim_iter=17 stress="0.0064547232566329465 5.7365400763142114e-15 -8.93242709134604e-17 5.7365400763142114e-15 0.0020695306817967592 -3.726248121178746e-15 -8.93242709134604e-17 -3.726248121178746e-15 -0.0008493482850124387" pbc="T T T"
Si       1.20909860       8.80016004       9.50495537
Si       3.21003340       8.80016004       3.30329551
Si       3.21003340       8.80016004       9.50495537
Si       1.20909860       8.80016004       3.30329551
Si       3.20896806       9.55386863      11.80771513
Si       1.21016394       9.55386863       1.00053574
Si       1.21016394       9.55386863      11.80771513
Si       3.20896806       9.55386863       1.00053574
Si       3.41898830       8.03604647       5.13759871
Si       1.00014370       8.03604647       7.67065216
Si       1.00014370       8.03604647       5.13759871
Si       3.41898830       8.03604647       7.67065216
Si       1.20823420       4.71070380      11.80927948
Si       3.21089780       4.71070380       0.99897139
Si       3.21089780       4.71070380      11.80927948
Si       1.20823420       4.71070380       0.99897139
Si       2.20956600       3.15162676      11.04856680
Si       2.20956600       3.15162676       1.75968408
18
Lattice="4.391773917266858 0.0 0.0 0.0 11.474273368846635 -1.7305843333220083e-15 0.0 1.3931672604808563e-15 12.868805825533371" Properties=species:S:1:pos:R:3 unique_starting_index=55 config_type=initial n_minim_iter=18 stress="0.010128131836275905 5.675170106637721e-15 6.405884347729081e-17 5.675170106637721e-15 0.006031129471567365 5.5996489755885435e-15 6.405884347729081e-17 5.5996489755885435e-15 0.011830210350572556" pbc="T T T"
Si       1.19650174       8.83689807       9.53977090
Si       3.19527218       8.83689807       3.32903492
Si       3.19527218       8.83689807       9.53977090
Si       1.19650174       8.83689807       3.32903492
Si       3.19586658       9.61248117      11.86908041
Si       1.19590734       9.61248117       0.99972542
Si       1.19590734       9.61248117      11.86908041
Si       3.19586658       9.61248117       0.99972542
Si       3.39087559       8.11181512       5.18277113
Si       1.00089833       8.11181512       7.68603470
Si       1.00089833       8.11181512       5.18277113
Si       3.39087559       8.11181512       7.68603470
Si       1.19459607       4.72247797      11.86725361
Si       3.19717784       4.72247797       1.00155221
Si       3.19717784       4.72247797      11.86725361
Si       1.19459607       4.72247797       1.00155221
Si       2.19588696       3.14107316      11.15425176
Si       2.19588696       3.14107316       1.71455407
18
Lattice="4.38261895241767 0.0 0.0 0.0 11.435071699842895 -1.7521985370555544e-15 0.0 1.3727409796054563e-15 12.913988953650064" Properties=species:S:1:pos:R:3 unique_starting_index=55 config_type=initial n_minim_iter=19 stress="0.007668923723549576 6.787872269748003e-15 2.3584076957282863e-16 6.787872269748003e-15 0.001248654700969112 7.864508026767452e-15 2.3584076957282863e-16 7.864508026767452e-15 0.005102980092827684" pbc="T T T"
Si       1.19151029       8.80342558       9.56634459
Si       3.19110867       8.80342558       3.34764437
Si       3.19110867       8.80342558       9.56634459
Si       1.19151029       8.80342558       3.34764437
Si       3.19137919       9.57864884      11.91396347
Si       1.19123976       9.57864884       1.00002548
Si       1.19123976       9.57864884      11.91396347
Si       3.19137919       9.57864884       1.00002548
Si       3.38249004       8.09542989       5.20776081
Si       1.00012892       8.09542989       7.70622815
Si       1.00012892       8.09542989       5.20776081
Si       3.38249004       8.09542989       7.70622815
Si       1.19041702       4.70430590      11.91342151
Si       3.19220193       4.70430590       1.00056744
Si       3.19220193       4.70430590      11.91342151
Si       1.19041702       4.70430590       1.00056744
Si       2.19130948       3.12030566      11.20851163
Si       2.19130948       3.12030566       1.70547732
18
Lattice="4.332061714158813 0.0 0.0 0.0 11.417827078364647 -1.8184938793360124e-15 0.0 1.3297506412732592e-15 13.102522208758744" Properties=species:S:1:pos:R:3 unique_starting_index=55 config_type=initial n_minim_iter=20 stress="-0.0058776038028353714 6.568113739985933e-15 -1.5075089567793278e-16 6.568113739985933e-15 -0.001676052816316368 1.5792098515361446e-14 -1.5075089567793278e-16 1.5792098515361446e-14 -0.002931073178047175" pbc="T T T"
Si       1.16635301       8.78294771       9.69893955
Si       3.16570870       8.78294771       3.40358266
Si       3.16570870       8.78294771       9.69893955
Si       1.16635301       8.78294771       3.40358266
Si       3.16580007       9.56132485      12.10246328
Si       1.16626164       9.56132485       1.00005893
Si       1.16626164       9.56132485      12.10246328
Si       3.16580007       9.56132485       1.00005893
Si       3.33380550       8.12952763       5.28579742
Si       0.99825621       8.12952763       7.81672479
Si       0.99825621       8.12952763       5.28579742
Si       3.33380550       8.12952763       7.81672479
Si       1.16747506       4.68101522      12.10388798
Si       3.16458665       4.68101522       0.99863423
Si       3.16458665       4.68101522      12.10388798
Si       1.16747506       4.68101522       0.99863423
Si       2.16603086       3.07554247      11.44418536
Si       2.16603086       3.07554247       1.65833685
18
Lattice="4.305291475321627 0.0 0.0 0.0 11.430621108079917 -1.874917268751452e-15 0.0 1.287463887163779e-15 13.203314628577697" Properties=species:S:1:pos:R:3 unique_starting_index=55 config_type=initial n_minim_iter=21 stress="-0.0036503384756295773 6.0904007856453675e-15 -1.3165201536959914e-16 6.0904007856453675e-15 -0.0015012355112238097 1.0453434862168136e-14 -1.3165201536959914e-16 1.0453434862168136e-14 0.00029448353120447966" pbc="T T T"
Si       1.15297838       8.78952468       9.76853914
Si       3.15231309       8.78952468       3.43477549
Si       3.15231309       8.78952468       9.76853914
Si       1.15297838       8.78952468       3.43477549
Si       3.15237404       9.56798364      12.20322145
Si       1.15291743       9.56798364       1.00009318
Si       1.15291743       9.56798364      12.20322145
Si       3.15237404       9.56798364       1.00009318
Si       3.30809838       8.16381423       5.32759994
Si       0.99719310       8.16381423       7.87571469
Si       0.99719310       8.16381423       5.32759994
Si       3.30809838       8.16381423       7.87571469
Si       1.15491525       4.67726185      12.20512648
Si       3.15037622       4.67726185       0.99818814
Si       3.15037622       4.67726185      12.20512648
Si       1.15491525       4.67726185       0.99818814
Si       2.15264574       3.06127059      11.56995261
Si       2.15264574       3.06127059       1.63336202
