16
Lattice="5.341087797496315 -1.1621116098237279 1.4449944861394917 0.19647779414436203 8.91087888990156 -1.1090385174796042 2.206410582679915 1.6839547804735828 11.145860210525944" Properties=species:S:1:pos:R:3 unique_starting_index=65 config_type=initial n_minim_iter=1 energy=-2646.5734346429954 free_energy=-2646.5734346429954 pbc="T T T"
Si       3.77366510       5.40934293       5.14928563
Si       3.34243379       5.26030182       3.52280241
Si       3.03918057       9.09414965       8.64551848
Si       4.11022464       7.62359833       6.57778423
Si       2.88903145       2.87514975       3.44248429
Si       1.38455491       2.91689425       1.54711399
Si       4.20666525       6.95253974       3.98047373
Si       4.61746250       3.78900278       3.17870313
Si       2.46599816      -0.57396530       7.00402363
Si       2.84420254       7.26506641       6.59028912
Si       3.06998817       2.03028440       1.63771055
Si       3.68428066      -0.13124611       7.03920336
Si       1.15528945       0.34465319       0.64429943
Si       4.96432842       2.32338632       2.18368604
Si       5.77513185       7.14180125       1.56291307
Si       5.14317256       5.94415169       1.57030460
16
Lattice="5.334958927245821 -1.1741142818543426 1.454310996024829 0.18276306193853412 9.01177179282995 -1.0592047697910536 2.233208083111726 1.7629886470871388 11.158887337818605" Properties=species:S:1:pos:R:3 unique_starting_index=65 config_type=initial n_minim_iter=2 stress="0.020239599334163583 0.0022693816133026443 -0.012601995069807031 0.0022693816133026443 0.006936547534143722 0.02277230407286984 -0.012601995069807031 0.02277230407286984 0.05950697038604596" pbc="T T T"
Si       3.77439478       5.49862569       5.18675024
Si       3.33976083       5.33955283       3.56126490
Si       3.04851796       9.24704280       8.70195133
Si       4.11312142       7.74638397       6.63078465
Si       2.88999625       2.92528376       3.46526519
Si       1.38238616       2.95939353       1.56642135
Si       4.20273763       7.05410360       4.02974926
Si       4.61245385       3.84975653       3.21264484
Si       2.48245164      -0.54530664       7.00732517
Si       2.84937188       7.38459863       6.63647743
Si       3.06547134       2.06005428       1.65784174
Si       3.69803471      -0.09769437       7.04929617
Si       1.15356725       0.35061535       0.64969314
Si       4.95817520       2.35399342       2.21056937
Si       5.75859758       7.23120876       1.62006962
Si       5.12933918       6.01891559       1.61894889
16
Lattice="5.318256782237031 -1.1887944090491553 1.4625815786244938 0.16676020465840186 9.087253866996846 -1.038495742899402 2.2665613316637314 1.7882830522876103 11.077131033287953" Properties=species:S:1:pos:R:3 unique_starting_index=65 config_type=initial n_minim_iter=3 stress="0.00928100092879964 0.0054696398429454705 0.007929421034059365 0.0054696398429454705 0.0065338888461574 0.005361136116681626 0.007929421034059365 0.005361136116681626 -0.01830131604289818" pbc="T T T"
Si       3.77135221       5.54781471       5.16307354
Si       3.33274028       5.38556365       3.55227249
Si       3.05963161       9.33149940       8.65240573
Si       4.11304034       7.81461600       6.60243868
Si       2.88787010       2.94993950       3.44963702
Si       1.37830193       2.98530650       1.56203158
Si       4.19321679       7.11522808       4.02150651
Si       4.59982972       3.88474256       3.20969400
Si       2.50076430      -0.54511579       6.95957814
Si       2.85450123       7.45088060       6.60128051
Si       3.05518446       2.07606325       1.66033821
Si       3.71105296      -0.09424644       7.00746143
Si       1.14951340       0.35210943       0.64929462
Si       4.94307788       2.36578213       2.21503827
Si       5.72981452       7.28949593       1.64007942
Si       5.10487835       6.06686673       1.63525485
16
Lattice="5.167168026755979 -1.2883162417254663 1.4694748336752523 0.0403110648604477 9.206755402456015 -1.1145565101655173 2.1505710461490812 1.694408833084847 11.13685385001618" Properties=species:S:1:pos:R:3 unique_starting_index=65 config_type=initial n_minim_iter=4 stress="-0.04219079726368768 -0.013865888226555077 -0.013440934421634852 -0.013865888226555077 0.013041491971866506 -0.0031161199754874223 -0.013440934421634852 -0.0031161199754874223 0.0045293554279310115" pbc="T T T"
Si       3.56450535       5.53938533       5.13035646
Si       3.14816545       5.37908448       3.53361329
Si       2.82895157       9.33520959       8.62648397
Si       3.87317488       7.79790861       6.58459022
Si       2.75218337       2.91604667       3.43732972
Si       1.28669105       2.99407791       1.54170135
Si       3.97005491       7.12910933       3.98221942
Si       4.39525829       3.87828128       3.19543279
Si       2.41838329      -0.64486316       7.01643962
Si       2.65018749       7.44710273       6.58198150
Si       2.92248546       2.04149066       1.64822060
Si       3.59364695      -0.19940866       7.05971207
Si       1.09772778       0.32650024       0.64521845
Si       4.76305723       2.26978037       2.19997557
Si       5.44466924       7.29966058       1.59269834
Si       4.85701725       6.06998278       1.60523485
16
Lattice="5.251353227915908 -1.3104375009970004 1.5673198658418412 0.006665727783541394 9.215733660737516 -1.183038994018686 2.3281649159949334 1.6153047664110909 11.274287429010787" Properties=species:S:1:pos:R:3 unique_starting_index=65 config_type=initial n_minim_iter=5 stress="-0.000293607554720615 0.002175869777472073 0.009674723323899933 0.002175869777472073 0.03638538305453251 -0.005354457723419455 0.009674723323899933 -0.005354457723419455 0.018634585932609343" pbc="T T T"
Si       3.65315215       5.53224596       5.16361830
Si       3.22113048       5.34470652       3.59304108
Si       2.97440188       9.26199555       8.69382171
Si       4.01227145       7.73627701       6.66605629
Si       2.82550384       2.87755357       3.48320175
Si       1.30815256       2.98514767       1.54553533
Si       4.07598723       7.12632866       4.03043284
Si       4.48028832       3.91286849       3.27025703
Si       2.54790289      -0.71456550       7.15035339
Si       2.74708173       7.38471682       6.63368289
Si       2.96271540       2.01191245       1.68962989
Si       3.76477255      -0.25608843       7.20909693
Si       1.09894149       0.30460864       0.65836179
Si       4.86283297       2.16914558       2.27481869
Si       5.50567853       7.29334268       1.65392471
Si       4.91761577       6.06627648       1.67955681
16
Lattice="5.251573695576034 -1.3062989438554178 1.546801936875422 -0.0182233178096742 9.13055584391844 -1.1182462762801526 2.306538342640521 1.6710382676305144 11.24594378664216" Properties=species:S:1:pos:R:3 unique_starting_index=65 config_type=initial n_minim_iter=6 stress="-0.013209836613330712 -0.01322442333769694 0.009789351494876902 -0.01322442333769694 -0.00015855868190745273 0.014471039914350543 0.009789351494876902 0.014471039914350543 0.005041028224500096" pbc="T T T"
Si       3.62486157       5.51884801       5.16642826
Si       3.19960822       5.31716427       3.61760932
Si       2.93395523       9.23159198       8.73137728
Si       3.98347822       7.70137063       6.69046462
Si       2.81125498       2.86520068       3.48494342
Si       1.29590344       2.96739277       1.55551197
Si       4.05149175       7.08560085       4.06030375
Si       4.46369686       3.90093129       3.27560160
Si       2.54083904      -0.67333155       7.12609759
Si       2.71239237       7.35773895       6.65599808
Si       2.95017052       1.99327983       1.69136573
Si       3.76189934      -0.21936692       7.18647959
Si       1.09170477       0.29951781       0.65471250
Si       4.85511292       2.13477057       2.27629534
Si       5.47824976       7.22833823       1.68915564
Si       4.89596080       6.01332506       1.70977721
16
Lattice="5.244858661738179 -1.2753697927194163 1.4581217400545907 0.05867257684087287 9.164190611131037 -1.1175431955404322 2.15881067677085 1.6883391067834492 11.147661081197903" Properties=species:S:1:pos:R:3 unique_starting_index=65 config_type=initial n_minim_iter=7 stress="0.014507224796712487 -0.0019170521416753171 -0.015769636148046138 -0.0019170521416753171 0.014385705965719612 0.00979981443565777 -0.015769636148046138 0.00979981443565777 0.000290095787965111" pbc="T T T"
Si       3.59178947       5.58473727       5.04646377
Si       3.19385501       5.36790886       3.56035494
Si       2.87196403       9.27599527       8.65796225
Si       3.95933147       7.74975213       6.58744440
Si       2.79160054       2.88843548       3.41420136
Si       1.29973858       2.98981474       1.51814169
Si       4.05987228       7.14447834       3.98061818
Si       4.46575108       3.96479800       3.16947462
Si       2.44815363      -0.67025529       7.06266721
Si       2.66823593       7.39919805       6.57416445
Si       2.94489933       2.01411387       1.63016559
Si       3.68568201      -0.20367418       7.10479062
Si       1.07950687       0.30328001       0.62852049
Si       4.86048889       2.15009374       2.19177443
Si       5.52146301       7.29627086       1.58265540
Si       4.93311170       6.06848038       1.61716107
16
Lattice="5.1980083424497225 -1.232699267772929 1.5024292254834084 0.12412416393904013 9.137185034160481 -1.158427810427347 2.213334631060656 1.65889125634994 11.242395226255173" Properties=species:S:1:pos:R:3 unique_starting_index=65 config_type=initial n_minim_iter=8 stress="7.003059264334116e-05 0.007784426301450242 -0.006846243333375105 0.007784426301450242 -0.00042610531255380687 0.003164656708422169 -0.006846243333375105 0.003164656708422169 -0.005196588416324963" pbc="T T T"
Si       3.62314581       5.60127585       5.05517413
Si       3.22885436       5.37846612       3.60356010
Si       2.96055479       9.22097406       8.72888641
Si       4.02347230       7.73008253       6.64026764
Si       2.81508665       2.88900896       3.44184311
Si       1.32475099       2.98637435       1.52015816
Si       4.10197014       7.13823959       4.01659174
Si       4.47667753       3.98464122       3.18376050
Si       2.47160469      -0.67980809       7.14598909
Si       2.73781118       7.37063395       6.61985486
Si       2.93971130       2.01902497       1.64500863
Si       3.70290517      -0.20780050       7.19863044
Si       1.06854480       0.30996371       0.63654572
Si       4.84364626       2.16095671       2.23253969
Si       5.53427757       7.31302215       1.59177314
Si       4.94792491       6.08187946       1.62793033
16
Lattice="5.259866747373773 -1.2998268750681414 1.5664829763576495 0.028033442152753538 9.138995023559218 -1.2565028292709088 2.2892297719302874 1.5264318657032232 11.365637309508283" Properties=species:S:1:pos:R:3 unique_starting_index=65 config_type=initial n_minim_iter=9 stress="0.0223451865116531 -0.01271214944900404 -0.0022181298264344683 -0.01271214944900404 -0.0032910190165825475 -0.005297962243303797 -0.0022181298264344683 -0.005297962243303797 -0.005174349123619203" pbc="T T T"
Si       3.61232999       5.56069280       5.01901666
Si       3.22457798       5.32903319       3.64471087
Si       2.93882131       9.06395872       8.77449923
Si       4.02371256       7.61106921       6.68041308
Si       2.85114187       2.82694843       3.45420069
Si       1.32651856       2.95840651       1.50613894
Si       4.09424224       7.05695482       4.03431884
Si       4.49136251       3.90395687       3.15986478
Si       2.57261303      -0.77967698       7.27694480
Si       2.72819289       7.27679253       6.66449497
Si       2.94435120       1.95768761       1.65748395
Si       3.80342703      -0.33521384       7.34519417
Si       1.06262711       0.29837683       0.64640036
Si       4.86517435       2.07220521       2.28177353
Si       5.49957160       7.23509371       1.56933514
Si       4.93818591       6.00883920       1.61196266
16
Lattice="5.2000959558563675 -1.2258336409210973 1.577117032363991 0.13482427851016646 9.088723867694652 -1.251653253427137 2.2955398180771596 1.5592665066936644 11.44570893834542" Properties=species:S:1:pos:R:3 unique_starting_index=65 config_type=initial n_minim_iter=10 stress="0.006069111932896497 -0.0006812538497152223 -0.003354612905353463 -0.0006812538497152223 -0.009448084864345148 0.007508315515937801 -0.003354612905353463 0.007508315515937801 -0.0027062382951811405" pbc="T T T"
Si       3.63794010       5.63442320       4.99994262
Si       3.25602238       5.35593191       3.70074491
Si       3.01612672       9.03287668       8.85010644
Si       4.08086706       7.61561089       6.74838406
Si       2.87937483       2.85135916       3.46439931
Si       1.36329335       2.96332380       1.50886320
Si       4.16143165       7.09404123       4.07984220
Si       4.50086641       3.93919337       3.12559564
Si       2.57345144      -0.74268653       7.35739917
Si       2.79369307       7.28019455       6.74575615
Si       2.94360172       1.97296141       1.67105475
Si       3.79262441      -0.30108058       7.44145075
Si       1.04212790       0.31830622       0.65241634
Si       4.83018126       2.11927416       2.31238007
Si       5.51583348       7.26392552       1.59296008
Si       4.96362160       6.03573879       1.63755005
16
Lattice="5.182548750243531 -1.2252192247248752 1.6147402675829177 0.13922951083459245 9.098257186868992 -1.2877421223953658 2.3414063504772242 1.5242776540569793 11.512161441721918" Properties=species:S:1:pos:R:3 unique_starting_index=65 config_type=initial n_minim_iter=11 stress="0.0031645806726814485 0.00430160930783983 0.001709012916951313 0.00430160930783983 -0.013972852455381267 0.006145866915372652 0.001709012916951313 0.006145866915372652 0.005501852346577865" pbc="T T T"
Si       3.65009079       5.65599096       4.99719108
Si       3.26170912       5.35336226       3.72271171
Si       3.05079050       9.01217703       8.89859902
Si       4.10064501       7.58816129       6.78136465
Si       2.89346117       2.84773110       3.48029945
Si       1.37363746       2.96318833       1.50636175
Si       4.18197739       7.10154030       4.09846988
Si       4.49873073       3.93381906       3.11581875
Si       2.60994956      -0.76810853       7.42328361
Si       2.82192196       7.25724772       6.78097710
Si       2.94137110       1.96217185       1.68418920
Si       3.82088648      -0.33212751       7.52163189
Si       1.03094423       0.31712895       0.65924348
Si       4.81377155       2.12224973       2.34723586
Si       5.49376179       7.26673162       1.60446472
Si       4.95224104       6.03808557       1.65685142
16
Lattice="5.158702530164083 -1.2488894600736786 1.6475100132119518 0.11927940095404092 9.150823564082517 -1.3460866202047577 2.3572123260609374 1.4663719441193561 11.595939508458528" Properties=species:S:1:pos:R:3 unique_starting_index=65 config_type=initial n_minim_iter=12 stress="0.004341285103724432 -0.00261004372534124 -0.004431774551064083 -0.00261004372534124 0.009195429512326088 0.009601334426509395 -0.004431774551064083 0.009601334426509395 0.020350049347290795" pbc="T T T"
Si       3.63851502       5.71519328       4.95938224
Si       3.24322202       5.37098699       3.73172362
Si       3.03714044       9.00541612       8.95007420
Si       4.07538852       7.55559769       6.81025554
Si       2.89063212       2.83972316       3.47654274
Si       1.37460760       2.97067285       1.48826120
Si       4.17026370       7.11746139       4.10270848
Si       4.46404307       3.95774732       3.07622159
Si       2.64016483      -0.83023914       7.51391971
Si       2.80946233       7.23525360       6.81803709
Si       2.93219218       1.94304060       1.69893544
Si       3.84494569      -0.39974099       7.62866055
Si       1.00427182       0.30947561       0.66993027
Si       4.77782858       2.09602905       2.36644578
Si       5.42757892       7.28134868       1.59591570
Si       4.90810827       6.04676195       1.66701991
16
Lattice="5.112978712245963 -1.27436931222054 1.6891887953025158 0.11588329896148596 9.250970937850418 -1.4483248383807934 2.3845238587666078 1.360432018193389 11.63176395826242" Properties=species:S:1:pos:R:3 unique_starting_index=65 config_type=initial n_minim_iter=13 stress="-0.0025574150876538034 0.0045878883427789025 -0.00024413069472301721 0.0045878883427789025 0.028275589324795996 -0.008030379516929911 -0.00024413069472301721 -0.008030379516929911 -0.018284654234539344" pbc="T T T"
Si       3.67147926       5.87727927       4.80006472
Si       3.22516403       5.41822124       3.67466610
Si       3.04323719       8.99328860       8.92452731
Si       4.04296369       7.49553114       6.79993446
Si       2.89347777       2.85782667       3.44892546
Si       1.38840301       2.99200102       1.42153208
Si       4.17277180       7.15539573       4.09133360
Si       4.40032700       4.02292615       2.93309994
Si       2.69890839      -0.95882370       7.62552523
Si       2.80146519       7.19067980       6.82595999
Si       2.92845063       1.89319231       1.67673898
Si       3.89668289      -0.52397920       7.76679812
Si       0.94085664       0.28994026       0.70067005
Si       4.72931106       2.08477692       2.38144338
Si       5.31850048       7.33236238       1.56456149
Si       4.84346964       6.07618835       1.66514959
16
Lattice="5.086824834396943 -1.28424962883567 1.7367078491977137 0.11816274403098734 9.291782462555707 -1.5248847095052491 2.4246711758700927 1.285285827132419 11.738018983949257" Properties=species:S:1:pos:R:3 unique_starting_index=65 config_type=initial n_minim_iter=14 stress="-0.00783736739623034 0.0064905214021925 -0.0006831238764904411 0.0064905214021925 0.03259950599279196 0.0038432414743539076 -0.0006831238764904411 0.0038432414743539076 -0.004384344622893916" pbc="T T T"
Si       3.71859899       5.99235799       4.71328087
Si       3.22157294       5.43328240       3.66126719
Si       3.06936072       8.95666093       8.98112483
Si       4.04018347       7.43489693       6.85442250
Si       2.90485919       2.86069796       3.44002386
Si       1.40391309       2.99763004       1.38456807
Si       4.18917395       7.15931156       4.12632549
Si       4.36374784       4.05945537       2.85311378
Si       2.75561124      -1.04705463       7.76292929
Si       2.81519154       7.13775190       6.88317285
Si       2.93243373       1.86011491       1.69192192
Si       3.94642320      -0.61466028       7.92529023
Si       0.89711331       0.27644108       0.73202536
Si       4.70619596       2.07861185       2.41910312
Si       5.25041501       7.34835442       1.56744479
Si       4.80876304       6.08414894       1.68226870
16
Lattice="5.098157887113267 -1.3156653451354892 1.7460818773206717 0.09679629723848136 9.335336971124999 -1.6102662394116676 2.4108725901184735 1.1845999447244346 11.761047136844402" Properties=species:S:1:pos:R:3 unique_starting_index=65 config_type=initial n_minim_iter=15 stress="-0.004870566546238509 -0.0015532036197669428 -0.0010688266198083372 -0.0015532036197669428 0.018965301415921298 0.002067978010055996 -0.0010688266198083372 0.002067978010055996 -0.007237376316827805" pbc="T T T"
Si       3.76130828       6.05158854       4.60409639
Si       3.20806557       5.42351103       3.61063649
Si       3.03208413       8.87993874       8.95113662
Si       4.01908293       7.37104286       6.83700858
Si       2.89902328       2.85181393       3.39692432
Si       1.40913842       2.98230834       1.33734453
Si       4.18116848       7.13995914       4.06930406
Si       4.33228394       4.06815601       2.75955928
Si       2.76777808      -1.14583373       7.83342530
Si       2.78820281       7.06276802       6.83613173
Si       2.94766039       1.82838675       1.67297059
Si       3.96536701      -0.73185409       7.98333169
Si       0.87385222       0.27127566       0.75821268
Si       4.70495357       2.06588374       2.41046728
Si       5.19628695       7.33742594       1.53081767
Si       4.78858787       6.09089511       1.63369917
16
Lattice="5.098678749919693 -1.3422522009013325 1.7579716600516742 0.0716601621764223 9.358799471216313 -1.6714953954198295 2.4012224640239888 1.1111843193038187 11.799196106414488" Properties=species:S:1:pos:R:3 unique_starting_index=65 config_type=initial n_minim_iter=16 stress="-0.001715807396340275 0.009727204303038424 0.006372435384574822 0.009727204303038424 0.027491278242371752 0.011243535491765419 0.006372435384574822 0.011243535491765419 -0.006530976540488178" pbc="T T T"
Si       3.79719033       6.06671117       4.54992616
Si       3.18634395       5.39367744       3.59033808
Si       2.99347087       8.80490769       8.95320554
Si       3.99447687       7.32343286       6.84012734
Si       2.88532936       2.84593794       3.36744637
Si       1.40696653       2.95410107       1.31150843
Si       4.15946627       7.15075947       4.05074123
Si       4.28981729       4.07320622       2.71587294
Si       2.76888635      -1.22085961       7.89164652
Si       2.76909902       7.00728684       6.79667358
Si       2.94807433       1.80944229       1.66429413
Si       3.96346695      -0.82964415       8.03142399
Si       0.85830987       0.26691017       0.78635980
Si       4.70352655       2.05268910       2.41199269
Si       5.14589485       7.32245219       1.50625774
Si       4.76294054       6.08987358       1.59246782
16
Lattice="5.145206450664146 -1.3694883132491218 1.7629317445385877 0.049941705343786176 9.34571566306617 -1.7671785452234352 2.382092720288223 0.9904422683035253 11.85036387233224" Properties=species:S:1:pos:R:3 unique_starting_index=65 config_type=initial n_minim_iter=17 stress="-0.00468220377446426 -0.0077337180101705975 -0.0009071916766956326 -0.0077337180101705975 -0.012238822342175753 0.00669333980413096 -0.0009071916766956326 0.00669333980413096 0.014526343822608735" pbc="T T T"
Si       3.87290525       6.00364145       4.48790098
Si       3.20220649       5.35106480       3.57418235
Si       2.95493118       8.65637296       8.92581318
Si       3.99527585       7.22444055       6.81759383
Si       2.88265307       2.82001827       3.32556945
Si       1.41326488       2.89248945       1.28171544
Si       4.14504107       7.10561138       3.98353551
Si       4.28076596       4.04184155       2.66495571
Si       2.75929166      -1.31804965       7.95321232
Si       2.76882920       6.90010640       6.71604557
Si       2.97072351       1.78936850       1.64136859
Si       3.96042297      -0.95650235       8.09516744
Si       0.85604181       0.25723468       0.81699163
Si       4.74813117       2.03523646       2.40038421
Si       5.14914150       7.27900065       1.43543644
Si       4.77528000       6.04730270       1.52726302
16
Lattice="5.156368765223334 -1.3472103477756199 1.7296605929662598 0.10475859518023031 9.361689176344411 -1.7925145784875118 2.327050834692557 0.9736048067040742 11.826643826708034" Properties=species:S:1:pos:R:3 unique_starting_index=65 config_type=initial n_minim_iter=18 stress="-0.0022767246716922 -0.0038256093373717345 -0.0044674410507624576 -0.0038256093373717345 -0.0010639291728870147 0.013012442722112895 -0.0044674410507624576 0.013012442722112895 0.034329132025601616" pbc="T T T"
Si       3.96625099       6.04918689       4.43741283
Si       3.22830305       5.38230854       3.57306732
Si       2.93862637       8.62110527       8.88897531
Si       4.01470743       7.22105011       6.77745937
Si       2.88413558       2.85035132       3.26692199
Si       1.43193623       2.86292314       1.26398936
Si       4.15676016       7.15541955       3.91084379
Si       4.27633860       4.06497236       2.60720708
Si       2.70805099      -1.33136827       7.93434728
Si       2.79022632       6.87939455       6.65630635
Si       2.98108523       1.81384574       1.60589793
Si       3.91828342      -0.96474200       8.08161876
Si       0.85034447       0.25372618       0.83474730
Si       4.78569262       2.07309901       2.36956885
Si       5.19047449       7.31818858       1.37605899
Si       4.82147298       6.08849967       1.47127700
16
Lattice="5.183472350384283 -1.340970160816463 1.7156943608103898 0.13992501404656724 9.39052459884111 -1.846422783608047 2.306345472494573 0.9173294612866506 11.798847930770949" Properties=species:S:1:pos:R:3 unique_starting_index=65 config_type=initial n_minim_iter=19 stress="0.00259114126514143 -0.00024190895196567365 0.0002895610794299895 -0.00024190895196567365 -1.6559924523937074e-05 0.014503611839881152 0.0002895610794299895 0.014503611839881152 0.02855384408721745" pbc="T T T"
Si       4.08225305       6.11178689       4.31510173
Si       3.26228821       5.41059377       3.58934492
Si       2.93494834       8.56344675       8.83606684
Si       4.04632895       7.19272109       6.72877802
Si       2.89306713       2.86925280       3.20193344
Si       1.45432827       2.82790776       1.23650199
Si       4.17902282       7.21098134       3.83409669
Si       4.27111360       4.08912613       2.52162675
Si       2.70202412      -1.39069505       7.93676469
Si       2.82885129       6.83600316       6.58553879
Si       3.00238140       1.81617402       1.56259570
Si       3.90680099      -1.02147017       8.09794875
Si       0.83605825       0.23482078       0.84846669
Si       4.82849802       2.08768472       2.34790879
Si       5.21855814       7.34510462       1.31257328
Si       4.86962594       6.11678272       1.42236543
16
Lattice="5.227275904004499 -1.346257340480986 1.6967229462928688 0.15230256911796913 9.425420911576378 -1.8761967109381423 2.289982040243207 0.8836050562259946 11.746598267212018" Properties=species:S:1:pos:R:3 unique_starting_index=65 config_type=initial n_minim_iter=20 stress="0.003208141098826807 -0.007188926926360873 -0.0032222878143356648 -0.007188926926360873 0.020074366378238884 0.018353932595694067 -0.0032222878143356648 0.018353932595694067 0.014952435290025644" pbc="T T T"
Si       4.18044069       6.15245969       4.24199494
Si       3.29435465       5.44666966       3.61196404
Si       2.92514777       8.54265527       8.76665742
Si       4.06885822       7.18670663       6.65995321
Si       2.89686105       2.87816605       3.14825159
Si       1.46416070       2.80460325       1.22237386
Si       4.18933953       7.26711600       3.77180637
Si       4.27435975       4.09458136       2.46168887
Si       2.70206421      -1.43766753       7.90298150
Si       2.86429212       6.81962868       6.50852316
Si       3.04291126       1.82056634       1.53143976
Si       3.89730247      -1.05387367       8.06788880
Si       0.83253849       0.21388794       0.85413429
Si       4.86326693       2.10300404       2.31591273
Si       5.25380657       7.36521809       1.26322541
Si       4.92292539       6.13657841       1.38142644
16
Lattice="5.27748114263975 -1.311313959730516 1.6877049219487057 0.2207391285450478 9.413166783114002 -1.9097778443725506 2.303188219860742 0.8527255818574552 11.720772593372226" Properties=species:S:1:pos:R:3 unique_starting_index=65 config_type=initial n_minim_iter=21 stress="0.0015493072800739783 0.002125177080640355 0.006652810701578123 0.002125177080640355 0.018549393806376817 6.947470129814918e-05 0.006652810701578123 6.947470129814918e-05 -0.015137342945169364" pbc="T T T"
Si       4.33484575       6.17407158       4.18040269
Si       3.40822788       5.45708753       3.64631069
Si       2.98942019       8.49948848       8.71426733
Si       4.15292744       7.16667137       6.59149024
Si       2.92289133       2.87597020       3.10765959
Si       1.47813683       2.78894231       1.21799807
Si       4.26616424       7.30447863       3.71190467
Si       4.29098474       4.11982961       2.43662125
Si       2.71050916      -1.46136746       7.88790133
Si       2.96837347       6.78697697       6.45349507
Si       3.11169372       1.83143891       1.50652838
Si       3.88765882      -1.04164998       8.05655723
Si       0.83408876       0.18703851       0.86264654
Si       4.92812434       2.14716371       2.29991809
Si       5.34994832       7.37686064       1.21667344
Si       5.03875467       6.14409806       1.34817078
