14
Lattice="13.201350786549781 4.261672485095183 1.5211380067030524 3.516466275955956 9.160715859485254 -1.1492431306468356 -4.1812161343381815 -3.157040875225528 4.162801972379807" Properties=species:S:1:pos:R:3 unique_starting_index=20 config_type=initial n_minim_iter=1 energy=-2642.658345696248 free_energy=-2642.658345696248 pbc="T T T"
Si       6.25039563       4.50383847       5.96622727
Si      10.83230081       6.32135158       1.42813868
Si       6.28620530       5.76150900      -1.43153042
Si       1.70430011       3.94399589       3.10655817
Si      12.50636659       7.48215074       3.56039018
Si      12.80832727       6.64036284       3.24443872
Si       0.03023434       2.78319673       0.97430666
Si      -0.27172634       3.62498463       1.29025813
Si       5.78007569       6.18075862      -0.67512267
Si       2.24043700       3.52812108       2.37107686
Si       6.75652524       4.08458885       5.20981952
Si      10.29616392       6.73722639       2.16361999
Si       8.23511741       7.13675899       0.29972000
Si       4.30148352       3.12858848       4.23497685
14
Lattice="13.201273925262047 4.261696554048318 1.5210628263456134 3.51646655960032 9.160731871721028 -1.1492663857160044 -4.18121768799762 -3.157055304183563 4.162811457346929" Properties=species:S:1:pos:R:3 unique_starting_index=20 config_type=initial n_minim_iter=2 stress="-0.0005880034612672135 -0.00015298282788859732 -0.0003065354001708813 -0.00015298282788859732 -7.89670072794081e-05 -1.6851168628199442e-05 -0.0003065354001708813 -1.6851168628199442e-05 -0.00020662413841272085" pbc="T T T"
Si       6.25033595       4.50384872       5.96616974
Si      10.83224072       6.32137378       1.42807499
Si       6.28618685       5.76152440      -1.43156184
Si       1.70428208       3.94399934       3.10653291
Si      12.50629438       7.48217511       3.56030821
Si      12.80824788       6.64038902       3.24435541
Si       0.03022841       2.78319801       0.97429969
Si      -0.27172509       3.62498410       1.29025249
Si       5.78005027       6.18077520      -0.67515519
Si       2.24041782       3.52812594       2.37105388
Si       6.75647253       4.08459792       5.20976309
Si      10.29610498       6.73724719       2.16355402
Si       8.23507915       7.13677864       0.29966917
Si       4.30144364       3.12859449       4.23493873
14
Lattice="13.201713782818967 4.262360603538001 1.520832447948859 3.5169540831685673 9.161120454217897 -1.1493960959912248 -4.181495335273168 -3.157358811654006 4.1628536481111125" Properties=species:S:1:pos:R:3 unique_starting_index=20 config_type=initial n_minim_iter=3 stress="8.84376672892395e-05 0.00022971033715811427 -7.465349973037818e-05 0.00022971033715811427 5.354514613745711e-05 1.6618096895914468e-05 -7.465349973037818e-05 1.6618096895914468e-05 -9.189920852905196e-05" pbc="T T T"
Si       6.25055720       4.50420730       5.96596093
Si      10.83270752       6.32198223       1.42788453
Si       6.28661533       5.76191494      -1.43167093
Si       1.70446501       3.94414002       3.10640547
Si      12.50693633       7.48287482       3.56003869
Si      12.80875901       6.64111714       3.24405953
Si       0.03023621       2.78324743       0.97425131
Si      -0.27158648       3.62500510       1.29023047
Si       5.78034805       6.18119166      -0.67527847
Si       2.24058434       3.52828971       2.37096633
Si       6.75682448       4.08493059       5.20956847
Si      10.29658819       6.73783254       2.16332367
Si       8.23554198       7.13730020       0.29945935
Si       4.30163055       3.12882204       4.23483065
14
Lattice="13.20146514791183 4.261933559667635 1.5209706777874783 3.5166258260752867 9.160988183155068 -1.14942769767931 -4.1813116806277035 -3.1572441353340754 4.16288652636967" Properties=species:S:1:pos:R:3 unique_starting_index=20 config_type=initial n_minim_iter=4 stress="2.694452203920074e-06 -4.8340559495165524e-05 7.907267787497046e-06 -4.8340559495165524e-05 3.83533934433794e-05 -3.739269317780728e-05 7.907267787497046e-06 -3.739269317780728e-05 2.1254788122705095e-05" pbc="T T T"
Si       6.25040517       4.50397820       5.96607449
Si      10.83241283       6.32162552       1.42799824
Si       6.28637413       5.76169941      -1.43164499
Si       1.70436646       3.94405209       3.10643126
Si      12.50665265       7.48245626       3.56018056
Si      12.80847030       6.64069830       3.24419775
Si       0.03012664       2.78322134       0.97424894
Si      -0.27169101       3.62497931       1.29023176
Si       5.78006185       6.18100890      -0.67524743
Si       2.24046733       3.52818298       2.37099815
Si       6.75671745       4.08466871       5.20967694
Si      10.29631196       6.73749462       2.16343136
Si       8.23523669       7.13702089       0.29949748
Si       4.30154260       3.12865672       4.23493203
14
Lattice="13.201415841510496 4.261976343526457 1.5211066458521005 3.5166863353445517 9.160740814764148 -1.1492188506932166 -4.181296076470679 -3.15710939320799 4.16279243608724" Properties=species:S:1:pos:R:3 unique_starting_index=20 config_type=initial n_minim_iter=5 stress="-0.00010724200789160725 3.7282706871730555e-05 8.081931554770065e-05 3.7282706871730555e-05 -0.000185082611849833 0.0001284201083847979 8.081931554770065e-05 0.0001284201083847979 -7.03682018273936e-06" pbc="T T T"
Si       6.25042952       4.50404643       5.96614616
Si      10.83236375       6.32159694       1.42818877
Si       6.28637659       5.76156134      -1.43146593
Si       1.70444235       3.94401083       3.10649146
Si      12.50664931       7.48246447       3.56036978
Si      12.80845862       6.64070982       3.24437708
Si       0.03015679       2.78314330       0.97431046
Si      -0.27165252       3.62489795       1.29030315
Si       5.78004262       6.18091164      -0.67505795
Si       2.24047813       3.52809880       2.37106479
Si       6.75676348       4.08469612       5.20973818
Si      10.29632797       6.73750897       2.16361544
Si       8.23526432       7.13691170       0.29966274
Si       4.30154178       3.12869607       4.23501749
14
Lattice="13.201873225903798 4.26213044272014 1.5206566454826345 3.51689933594941 9.160988493099586 -1.149435940854187 -4.181588941359233 -3.157259072699359 4.162944897081576" Properties=species:S:1:pos:R:3 unique_starting_index=20 config_type=initial n_minim_iter=6 stress="0.00013562709479554173 -6.56383519772555e-05 -0.00014178181949147308 -6.56383519772555e-05 7.265743561463232e-05 0.00010658169544213717 -0.00014178181949147308 0.00010658169544213717 8.512219539751259e-05" pbc="T T T"
Si       6.25052647       4.50414544       5.96577866
Si      10.83265498       6.32180878       1.42785671
Si       6.28665715       5.76171443      -1.43161305
Si       1.70452864       3.94405108       3.10630889
Si      12.50701352       7.48271461       3.55988486
Si      12.80887137       6.64089302       3.24392314
Si       0.03017010       2.78314525       0.97428074
Si      -0.27168775       3.62496685       1.29024246
Si       5.78022220       6.18117519      -0.67520308
Si       2.24047930       3.52801286       2.37091842
Si       6.75696142       4.08468467       5.20936868
Si      10.29670432       6.73784700       2.16324718
Si       8.23563280       7.13714291       0.29928019
Si       4.30155082       3.12871695       4.23488541
14
Lattice="13.201913102679775 4.262527993128495 1.5206401403622127 3.5171782198026467 9.161186109122154 -1.1499110971340563 -4.181553102151901 -3.157693428572698 4.162870895032203" Properties=species:S:1:pos:R:3 unique_starting_index=20 config_type=initial n_minim_iter=7 stress="-1.836956852609895e-05 7.180749216736444e-05 2.74855185049094e-05 7.180749216736444e-05 -0.00019680155928167794 -0.00024716686099037665 2.74855185049094e-05 -0.00024716686099037665 3.920272243969272e-05" pbc="T T T"
Si       6.25085871       4.50404145       5.96518325
Si      10.83268611       6.32214234       1.42777213
Si       6.28667951       5.76197922      -1.43158332
Si       1.70485211       3.94387833       3.10582780
Si      12.50722701       7.48300340       3.55954182
Si      12.80905587       6.64117250       3.24370425
Si       0.03031121       2.78301727       0.97405812
Si      -0.27151765       3.62484817       1.28989569
Si       5.78029097       6.18153734      -0.67529679
Si       2.24063407       3.52772671       2.37058700
Si       6.75724725       4.08448333       5.20889673
Si      10.29690415       6.73829397       2.16301293
Si       8.23586391       7.13746300       0.29891845
Si       4.30167431       3.12855768       4.23468148
14
Lattice="13.201959823110839 4.264126486931978 1.5211464845638158 3.517628004794856 9.163000821817851 -1.1495467349694102 -4.181402148401975 -3.158541314787116 4.161875963669188" Properties=species:S:1:pos:R:3 unique_starting_index=20 config_type=initial n_minim_iter=8 stress="-0.0003182938349476197 4.645214287301351e-05 0.0002617197340606238 4.645214287301351e-05 0.000644580714686388 0.000133133790440551 0.0002617197340606238 0.000133133790440551 -0.00016467494357177176" pbc="T T T"
Si       6.25176616       4.50543857       5.96376299
Si      10.83263399       6.32400935       1.42854967
Si       6.28641952       5.76314743      -1.43028728
Si       1.70555169       3.94457665       3.10492604
Si      12.50767460       7.48531539       3.55962982
Si      12.80936810       6.64321007       3.24398270
Si       0.03051108       2.78327060       0.97384590
Si      -0.27118242       3.62537592       1.28949301
Si       5.78027847       6.18340102      -0.67434728
Si       2.24106706       3.52772088       2.37003948
Si       6.75790721       4.08518497       5.20782299
Si      10.29711862       6.74086511       2.16343623
Si       8.23630668       7.13940062       0.29903357
Si       4.30187900       3.12918538       4.23444215
14
Lattice="13.205248491448984 4.266575325911938 1.5195795791921733 3.5200550924668796 9.164161808860639 -1.1503291870945482 -4.18286673794153 -3.1600332364338715 4.160356185100536" Properties=species:S:1:pos:R:3 unique_starting_index=20 config_type=initial n_minim_iter=9 stress="0.00039318390447115104 -0.00017450615307549718 1.7130480977681518e-05 -0.00017450615307549718 -0.00016642131376974807 1.4658845147977319e-05 1.7130480977681518e-05 1.4658845147977319e-05 -0.0007846748415000941" pbc="T T T"
Si       6.25507708       4.50683260       5.95776859
Si      10.83507144       6.32632270       1.42816085
Si       6.28735977       5.76387129      -1.42816201
Si       1.70736541       3.94438120       3.10144573
Si      12.51159228       7.48809275       3.55674198
Si      12.81287330       6.64574499       3.24178248
Si       0.03084456       2.78261115       0.97286460
Si      -0.27043646       3.62495891       1.28782409
Si       5.78173868       6.18640145      -0.67319948
Si       2.24268149       3.52525192       2.36748257
Si       6.76069817       4.08430245       5.20280606
Si      10.29975536       6.74545198       2.16212401
Si       8.23974287       7.14163965       0.29665983
Si       4.30269398       3.12906424       4.23294675
14
Lattice="13.205173162949523 4.267489918268934 1.519445522010272 3.5205301048378326 9.164744787593781 -1.1506498512843713 -4.182982441138729 -3.1605151036878216 4.160652348032413" Properties=species:S:1:pos:R:3 unique_starting_index=20 config_type=initial n_minim_iter=10 stress="2.159283701154862e-05 5.0828438867087896e-05 -3.7511827741395575e-05 5.0828438867087896e-05 3.8628540406799805e-05 -3.061772305197336e-06 -3.7511827741395575e-05 -3.061772305197336e-06 0.00012974302120836146" pbc="T T T"
Si       6.25538995       4.50737949       5.95748863
Si      10.83504095       6.32717977       1.42821506
Si       6.28733088       5.76434011      -1.42804061
Si       1.70767988       3.94453983       3.10123296
Si      12.51174959       7.48913117       3.55665294
Si      12.81289884       6.64672846       3.24175353
Si       0.03097124       2.78258843       0.97279507
Si      -0.27017801       3.62499114       1.28769449
Si       5.78184955       6.18728835      -0.67313132
Si       2.24290845       3.52500294       2.36731255
Si       6.76087128       4.08443125       5.20257934
Si      10.29981237       6.74671666       2.16213547
Si       8.24007456       7.14246530       0.29624539
Si       4.30264627       3.12925431       4.23320263
14
Lattice="13.205652260541084 4.268424594101809 1.519639472013077 3.5209050803234945 9.166056902471176 -1.150990288674439 -4.182853751405048 -3.1614840764550873 4.159524193543236" Properties=species:S:1:pos:R:3 unique_starting_index=20 config_type=initial n_minim_iter=11 stress="9.445430925038696e-05 8.971106579714056e-06 9.941882393152875e-06 8.971106579714056e-06 9.189056611826093e-05 1.7456387449515952e-05 9.941882393152875e-06 1.7456387449515952e-05 -7.745788547820649e-05" pbc="T T T"
Si       6.25676577       4.50821410       5.95479739
Si      10.83504839       6.32778983       1.42903143
Si       6.28693782       5.76478332      -1.42662402
Si       1.70865520       3.94520759       3.09914194
Si      12.51248770       7.49056513       3.55597183
Si      12.81331628       6.64794332       3.24129626
Si       0.03121589       2.78243229       0.97220155
Si      -0.26961269       3.62505410       1.28687712
Si       5.78179925       6.18968351      -0.67247243
Si       2.24352180       3.52390077       2.36589100
Si       6.76190434       4.08331391       5.20064581
Si      10.30018179       6.74909665       2.16228237
Si       8.24098515       7.14380950       0.29545254
Si       4.30271844       3.12918792       4.23272083
14
Lattice="13.208660227456962 4.277471780213189 1.5214886358119852 3.52427761015803 9.179086171385514 -1.1567211621849571 -4.180865082894475 -3.172080201006625 4.149967209533413" Properties=species:S:1:pos:R:3 unique_starting_index=20 config_type=initial n_minim_iter=12 stress="0.0012688702070242617 0.00014465580778210373 0.0001972831688294357 0.00014465580778210373 0.0012299491133367564 0.00031907120784535983 0.0001972831688294357 0.00031907120784535983 0.0008307460862795895" pbc="T T T"
Si       6.27123883       4.51510305       5.92797691
Si      10.83165409       6.33209853       1.43758907
Si       6.28083393       5.76937470      -1.41324223
Si       1.72041866       3.95237922       3.07714561
Si      12.51863778       7.50435312       3.54984233
Si      12.81744410       6.65971012       3.23823102
Si       0.03343498       2.78012463       0.96489236
Si      -0.26537134       3.62476764       1.27650366
Si       5.77968360       6.21614464      -0.66820328
Si       2.25082485       3.50997193       2.35236373
Si       6.77238915       4.06833311       5.18293796
Si      10.30124790       6.77450582       2.16237096
Si       8.24881923       7.15860584       0.28537345
Si       4.30325353       3.12587191       4.22936123
14
Lattice="13.210509144127442 4.284170590735176 1.5224396985756021 3.5261731490039705 9.19084166492965 -1.1622086235680218 -4.179216017311584 -3.180880776293941 4.143929114019907" Properties=species:S:1:pos:R:3 unique_starting_index=20 config_type=initial n_minim_iter=13 stress="0.0035321497121904386 0.00021633076319856013 0.00028664691873351 0.00021633076319856013 0.0036206831252334837 0.0006248972317585205 0.00028664691873351 0.0006248972317585205 0.0028504873331491533" pbc="T T T"
Si       6.28194530       4.51993271       5.90775855
Si      10.82837680       6.33570862       1.44445245
Si       6.27552097       5.77419877      -1.40359836
Si       1.72908947       3.95842285       3.05970774
Si      12.52282042       7.51547697       3.54494812
Si      12.81974424       6.66906453       3.23531765
Si       0.03464586       2.77865451       0.95921207
Si      -0.26227796       3.62506695       1.26884254
Si       5.77767371       6.23779422      -0.66593498
Si       2.25638830       3.49889911       2.34274207
Si       6.77979256       4.05633726       5.17009516
Si      10.30107797       6.79523237       2.16141812
Si       8.25491444       7.17049667       0.27679198
Si       4.30255184       3.12363481       4.22736820
14
Lattice="13.210220681639688 4.288034773329978 1.5239913000636882 3.5261341256756293 9.199956320793508 -1.165973814249445 -4.177205807236358 -3.1869249652764533 4.140436082413901" Properties=species:S:1:pos:R:3 unique_starting_index=20 config_type=initial n_minim_iter=14 stress="0.005407530876735458 0.00022082920075806525 0.00026297957781927506 0.00022082920075806525 0.005774512937880927 0.000953276569767547 0.00026297957781927506 0.000953276569767547 0.004659140418716442" pbc="T T T"
Si       6.28918451       4.52321305       5.89511166
Si      10.82392533       6.33807912       1.45061698
Si       6.26996449       5.77785308      -1.39665809
Si       1.73522367       3.96298701       3.04783659
Si      12.52368692       7.52284495       3.54280387
Si      12.81911282       6.67555341       3.23436925
Si       0.03546208       2.77822118       0.95564970
Si      -0.25996382       3.62551272       1.26408432
Si       5.77497446       6.25386819      -0.66459553
Si       2.25975400       3.49108600       2.33679415
Si       6.78417454       4.04719794       5.16304910
Si      10.29939500       6.80998013       2.16165942
Si       8.25718755       7.17879663       0.27063506
Si       4.30196145       3.12226950       4.22781851
14
Lattice="13.20165375448501 4.286085713116563 1.5313737449485403 3.5194562463696477 9.209557413364342 -1.172037699370645 -4.169016044855478 -3.1936439797167173 4.135981132158855" Properties=species:S:1:pos:R:3 unique_starting_index=20 config_type=initial n_minim_iter=15 stress="0.007617663704614124 -0.00030449332962921794 -1.737199092374217e-05 -0.00030449332962921794 0.007969910481806947 0.0010038115585450336 -1.737199092374217e-05 0.0010038115585450336 0.006370465682791031" pbc="T T T"
Si       6.29777191       4.52334792       5.87847264
Si      10.80786024       6.33400568       1.46591112
Si       6.25432205       5.77865123      -1.38315546
Si       1.74423371       3.96799347       3.02940606
Si      12.51560270       7.52540580       3.54523299
Si      12.80949758       6.67769468       3.23833500
Si       0.03649126       2.77659334       0.95008418
Si      -0.25740362       3.62430447       1.25698218
Si       5.76348750       6.27623196      -0.66306605
Si       2.26449020       3.47560311       2.32882820
Si       6.78860646       4.02576718       5.15838323
Si      10.28760376       6.82639604       2.16648898
Si       8.25527553       7.18574748       0.26346606
Si       4.29681842       3.11625166       4.23185112
14
Lattice="13.184870815710433 4.279186339244059 1.5434490504584721 3.508790983810263 9.213685674642381 -1.180514727065933 -4.155845160858313 -3.1996175623613663 4.131909048176105" Properties=species:S:1:pos:R:3 unique_starting_index=20 config_type=initial n_minim_iter=16 stress="0.011218828107361417 -0.0009926040835478128 -0.0003181203508920012 -0.0009926040835478128 0.01086385751197291 0.0003154204666439603 -0.0003181203508920012 0.0003154204666439603 0.009018271973126983" pbc="T T T"
Si       6.30639279       4.51831269       5.86189761
Si      10.78233440       6.32183365       1.48768321
Si       6.23142385       5.77494176      -1.36705424
Si       1.75548224       3.97142080       3.00716016
Si      12.49927795       7.52220957       3.55161524
Si      12.79214522       6.67290238       3.24541074
Si       0.03853869       2.77104488       0.94322813
Si      -0.25432858       3.62035207       1.24943263
Si       5.74597467       6.29791059      -0.66059327
Si       2.27120078       3.45309061       2.32087792
Si       6.79184197       3.99534386       5.15543664
Si      10.26661586       6.84016384       2.17396545
Si       8.24799799       7.18732509       0.25488773
Si       4.28981864       3.10592936       4.23995564
14
Lattice="13.161452390017937 4.263826981055933 1.5604973841311192 3.493100752825007 9.20677808239684 -1.184508685343037 -4.139385910519398 -3.1985693844429153 4.129032997231949" Properties=species:S:1:pos:R:3 unique_starting_index=20 config_type=initial n_minim_iter=17 stress="0.012365025034718051 -0.0019014942471459648 -0.00013937171726734538 -0.0019014942471459648 0.010381054892812295 -0.0009978432874463553 -0.00013937171726734538 -0.0009978432874463553 0.009241440474671547" pbc="T T T"
Si       6.30896743       4.50690682       5.85755847
Si      10.75286525       6.30188273       1.51325980
Si       6.20619980       5.76512886      -1.35253677
Si       1.76230198       3.97015295       2.99176190
Si      12.47505989       7.50673549       3.56665604
Si      12.76672684       6.65749301       3.25925406
Si       0.04010734       2.76530019       0.93836566
Si      -0.25155961       3.61454267       1.24576764
Si       5.72459203       6.30554387      -0.65657996
Si       2.27463679       3.43225400       2.31916803
Si       6.79057520       3.96649181       5.16160166
Si      10.24053044       6.83978168       2.18585367
Si       8.23320196       7.17940310       0.25378679
Si       4.28196528       3.09263257       4.25123491
14
Lattice="13.130197803592864 4.24158455820637 1.583089324967406 3.4707376699072254 9.195642956122118 -1.1825027425493428 -4.119059449282816 -3.1916522573457065 4.127148171370731" Properties=species:S:1:pos:R:3 unique_starting_index=20 config_type=initial n_minim_iter=18 stress="0.009569755178071052 -0.002602123416923121 0.0001868677470168645 -0.002602123416923121 0.0044792011616501225 -0.0019259585817636778 0.0001868677470168645 -0.0019259585817636778 0.0055198048801396405" pbc="T T T"
Si       6.30659509       4.49441318       5.86434473
Si      10.71536923       6.27806547       1.54345141
Si       6.17528093       5.75116207      -1.33660997
Si       1.76650679       3.96750979       2.98428334
Si      12.44050727       7.48415856       3.59027767
Si      12.73394902       6.63660416       3.28141143
Si       0.04136876       2.76141670       0.93745708
Si      -0.25207300       3.60897110       1.24632332
Si       5.69758747       6.30476589      -0.64994656
Si       2.27557081       3.41499499       2.32342023
Si       6.78428856       3.94080937       5.17768132
Si      10.20630521       6.83058027       2.20431453
Si       8.21089398       7.16246578       0.25967560
Si       4.27098204       3.08310948       4.26805915
14
Lattice="13.09974787871919 4.226300207512022 1.6064380801108116 3.451702030273521 9.191902302653943 -1.1868991404857845 -4.09727063705565 -3.1928442415357803 4.120709159172879" Properties=species:S:1:pos:R:3 unique_starting_index=20 config_type=initial n_minim_iter=19 stress="0.017954391579079097 -0.00301245762938058 0.0015084389773536476 -0.00301245762938058 0.009137998291991077 -0.0032283560242253135 0.0015084389773536476 -0.0032283560242253135 0.01072211714769825" pbc="T T T"
Si       6.31420114       4.48543358       5.85155786
Si      10.67455401       6.25810410       1.57889099
Si       6.13997813       5.73992468      -1.31130976
Si       1.77962526       3.96725417       2.96135711
Si      12.40936661       7.47061880       3.60858194
Si      12.70269965       6.62379145       3.30007084
Si       0.04481266       2.75473947       0.93166615
Si      -0.24852037       3.60156682       1.24017726
Si       5.66898389       6.32236571      -0.64169032
Si       2.28234981       3.38546040       2.31831840
Si       6.78519538       3.90299256       5.18193842
Si      10.17182947       6.83989787       2.22192970
Si       8.19407696       7.15647574       0.25663474
Si       4.26010232       3.06888253       4.28361336
14
Lattice="13.072325370434225 4.212682000095271 1.6267309464359498 3.435628928034641 9.185957487805835 -1.1914896356969218 -4.078218813934432 -3.1934273759877416 4.116175174382075" Properties=species:S:1:pos:R:3 unique_starting_index=20 config_type=initial n_minim_iter=20 stress="0.026407143372223153 -0.0037477335677927382 0.0032811283746179607 -0.0037477335677927382 0.01426510645985131 -0.004045793178542061 0.0032811283746179607 -0.004045793178542061 0.015610751210518161" pbc="T T T"
Si       6.31967055       4.47593758       5.84152637
Si      10.63911212       6.24101840       1.60817068
Si       6.11006493       5.72927453      -1.29010989
Si       1.79062336       3.96419372       2.94324581
Si      12.38168468       7.45770248       3.62543911
Si      12.67474859       6.61010326       3.31585389
Si       0.04805081       2.74750964       0.92597737
Si      -0.24501310       3.59510885       1.23556260
Si       5.64466391       6.33537561      -0.63638445
Si       2.28797389       3.36005238       2.31483400
Si       6.78507157       3.86983651       5.18780093
Si      10.14176159       6.84515973       2.23658249
Si       8.17869767       7.14927909       0.25375960
Si       4.25103781       3.05593302       4.29765689
14
Lattice="13.045119912068731 4.203357764764444 1.6435138820824209 3.424413013915792 9.177325640741806 -1.201692588342035 -4.061275522394959 -3.1963295880427136 4.117323573345148" Properties=species:S:1:pos:R:3 unique_starting_index=20 config_type=initial n_minim_iter=21 stress="0.02501757842762735 -0.0023009249030204316 0.004678724264005872 -0.0023009249030204316 0.013756733285037018 -0.005227593300523663 0.004678724264005872 -0.005227593300523663 0.01233823735747845" pbc="T T T"
Si       6.32436831       4.46344152       5.83590466
Si      10.60732637       6.22912049       1.62897264
Si       6.08388909       5.72091230      -1.27675980
Si       1.80093103       3.95523332       2.93017223
Si      12.35526942       7.44515694       3.63643778
Si      12.64939790       6.59852373       3.32625521
Si       0.05298798       2.73919687       0.92270709
Si      -0.24114050       3.58583009       1.23288966
Si       5.62481315       6.34360080      -0.63697067
Si       2.29327698       3.33541121       2.31275706
Si       6.78344426       3.84075302       5.19611553
Si      10.11498043       6.84894261       2.24638781
Si       8.16535607       7.14362747       0.24781893
Si       4.24290134       3.04072635       4.31132593
