22
Lattice="9.04727395750884 -2.904881069018861 -1.188219591101045 -8.239221792005367 9.367387532996325 -1.8193220067561857 -5.016768310503157 -1.5305911938768935 11.788010744033578" Properties=species:S:1:pos:R:3 unique_starting_index=18 config_type=initial n_minim_iter=1 energy=-4253.181691621143 free_energy=-4253.181691621143 pbc="T T T"
Si      -0.96110242       6.26672584      -0.02179434
Si       1.06208638       0.05981787       9.52579190
Si      -4.28489966      -1.19840174       9.41822028
Si       0.73402684       0.29343386      10.55800676
Si      -8.30551976       3.80488717      10.75532345
Si       6.13148695       1.03842128      -1.49074782
Si       3.56759242       0.38101158      -2.00150766
Si      -1.78750185       0.09321442       9.23148681
Si      -1.81299277      -0.33523316      10.06260393
Si      -8.09190189       2.61417267       5.23784988
Si       1.11524721      -0.12749605       3.09016764
Si      -5.95420121       4.65367610       5.34928963
Si      -4.07970890      -1.14419585       8.43734141
Si      -3.57944501       5.57552429      -0.15625879
Si       0.58440425       0.63245072       4.11781457
Si      -0.57940194       5.49477187      -0.40105573
Si      -1.60894601      -0.94794976       3.51954289
Si       5.16648703      -4.89656351       7.75867505
Si       0.74662091       0.78930340       3.14546845
Si      -5.74494425       3.78845876       5.86186144
Si      -5.54095930       3.85892248       4.86571674
Si      -1.41347670      -0.72557479       8.95540736
22
Lattice="9.047656533826379 -2.9025748839829673 -1.1865443689914643 -8.23918093054754 9.36205627398541 -1.8189404873718682 -5.015709792665753 -1.529581857106275 11.781569413286746" Properties=species:S:1:pos:R:3 unique_starting_index=18 config_type=initial n_minim_iter=2 stress="0.019563068595995096 0.00700785436024048 0.004653893286461089 0.00700785436024048 0.003160369732487111 0.001570406547749404 0.004653893286461089 0.001570406547749404 0.00018698953672811959" pbc="T T T"
Si      -0.96050690       6.26377564      -0.02141226
Si       1.06374612       0.06067983       9.52136293
Si      -4.28407397      -1.19768178       9.41310558
Si       0.73563231       0.29422941      10.55298937
Si      -8.30437634       3.80297663      10.74928121
Si       6.13195775       1.03877155      -1.48902496
Si       3.56782881       0.38120242      -1.99993835
Si      -1.78615442       0.09361899       9.22690915
Si      -1.81174328      -0.33435429      10.05750428
Si      -8.09157888       2.61240551       5.23438564
Si       1.11582566      -0.12710422       3.08889281
Si      -5.95366553       4.65107145       5.34625362
Si      -4.07888188      -1.14354168       8.43269176
Si      -3.57918550       5.57249822      -0.15624651
Si       0.58522006       0.63255181       4.11595166
Si      -0.57900283       5.49217153      -0.40026442
Si      -1.60855347      -0.94741477       3.51741692
Si       5.16751188      -4.89293172       7.75539125
Si       0.74740934       0.78932243       3.14417695
Si      -5.74430753       3.78654829       5.85850249
Si      -5.54043024       3.85688144       4.86285265
Si      -1.41234699      -0.72468080       8.95089646
22
Lattice="9.046578891351299 -2.9019850315242657 -1.1861100611782252 -8.238304338366833 9.3599497098625 -1.8185736177442868 -5.014794998086135 -1.5289574316110313 11.778909492969053" Properties=species:S:1:pos:R:3 unique_starting_index=18 config_type=initial n_minim_iter=3 stress="-0.0016135639570668424 -0.0005507149873201581 0.0005832598044627468 -0.0005507149873201581 -0.0025725474357025098 3.938345383093692e-05 0.0005832598044627468 3.938345383093692e-05 -0.004302046204729774" pbc="T T T"
Si      -0.96045584       6.26236230      -0.02128612
Si       1.06395214       0.06087427       9.51933396
Si      -4.28330879      -1.19720768       9.41101327
Si       0.73579728       0.29439485      10.55070711
Si      -8.30316672       3.80236942      10.74685352
Si       6.13116915       1.03857693      -1.48850517
Si       3.56742208       0.38110144      -1.99937540
Si      -1.78561640       0.09377714       9.22493544
Si      -1.81126647      -0.33396876      10.05530173
Si      -8.09047998       2.61194895       5.23312097
Si       1.11579074      -0.12703795       3.08828257
Si      -5.95295763       4.65005510       5.34506933
Si      -4.07810406      -1.14309589       8.43079054
Si      -3.57881156       5.57121662      -0.15617179
Si       0.58529560       0.63249207       4.11508529
Si      -0.57904533       5.49090916      -0.39994607
Si      -1.60819124      -0.94710661       3.51653558
Si       5.16711348      -4.89158057       7.75379017
Si       0.74748189       0.78922964       3.14356068
Si      -5.74355076       3.78585891       5.85717589
Si      -5.53971784       3.85613107       4.86173391
Si      -1.41191621      -0.72429885       8.94894519
22
Lattice="9.045727097618855 -2.900858203791359 -1.188688037342717 -8.236164959482625 9.358734435213455 -1.8180500976123286 -5.016520117515452 -1.5288260284375212 11.78888351876108" Properties=species:S:1:pos:R:3 unique_starting_index=18 config_type=initial n_minim_iter=4 stress="-0.0004904395230547429 0.0006400648336809553 -0.000579765556090913 0.0006400648336809553 -0.0020731707093137293 -0.00025393140478646215 -0.000579765556090913 -0.00025393140478646215 0.0031914442962090086" pbc="T T T"
Si      -0.95997687       6.26241600      -0.02061954
Si       1.06325419       0.06156445       9.52584867
Si      -4.28474913      -1.19729162       9.41969307
Si       0.73367816       0.29520321      10.55814187
Si      -8.30416422       3.80185045      10.75661511
Si       6.13077163       1.04023246      -1.49035016
Si       3.56821568       0.38175376      -2.00099877
Si      -1.78608545       0.09399268       9.23258024
Si      -1.81305861      -0.33254233      10.06340985
Si      -8.09018280       2.61080940       5.23886906
Si       1.11529005      -0.12714276       3.09056831
Si      -5.95401130       4.64844607       5.35062207
Si      -4.07857131      -1.14310921       8.43800906
Si      -3.57799860       5.57042155      -0.15503380
Si       0.58497423       0.63283529       4.11801957
Si      -0.57892503       5.49039728      -0.39856526
Si      -1.60801840      -0.94715024       3.51893674
Si       5.16452700      -4.88937494       7.75879633
Si       0.74787201       0.78985243       3.14594497
Si      -5.74422598       3.78546348       5.86294183
Si      -5.54006894       3.85551214       4.86631183
Si      -1.41308958      -0.72382239       8.95594245
22
Lattice="9.046482465024491 -2.9046442215887343 -1.1880219133459065 -8.238196040981908 9.36676355142293 -1.8170391303399542 -5.015939182328311 -1.528278944570048 11.783673242062285" Properties=species:S:1:pos:R:3 unique_starting_index=18 config_type=initial n_minim_iter=5 stress="0.00021489931910384277 -0.0010044672549049773 -0.0007084527768289068 -0.0010044672549049773 0.002935857016176426 0.0008039118956394385 -0.0007084527768289068 0.0008039118956394385 -0.001074395096875861" pbc="T T T"
Si      -0.96129638       6.26730348      -0.02020112
Si       1.06415862       0.06183685       9.52138184
Si      -4.28448974      -1.19682562       9.41579410
Si       0.73408206       0.29608418      10.55336251
Si      -8.30479011       3.80674860      10.75207802
Si       6.13063972       1.04023126      -1.48934680
Si       3.56826153       0.38152195      -1.99985544
Si      -1.78558818       0.09478939       9.22860279
Si      -1.81300330      -0.33138178      10.05907865
Si      -8.09065092       2.61413121       5.23654279
Si       1.11536624      -0.12762742       3.08938829
Si      -5.95502292       4.65273894       5.34860370
Si      -4.07810574      -1.14266534       8.43429650
Si      -3.57914624       5.57498918      -0.15468307
Si       0.58494056       0.63330438       4.11608335
Si      -0.57994212       5.49423225      -0.39753494
Si      -1.60763662      -0.94749410       3.51728477
Si       5.16570290      -4.89284894       7.75553348
Si       0.74795520       0.79043961       3.14463703
Si      -5.74492246       3.78952870       5.86051724
Si      -5.54068190       3.85952271       4.86418047
Si      -1.41248564      -0.72370999       8.95201629
22
Lattice="9.043785573561411 -2.9032717403618182 -1.1835125857925717 -8.23603292386802 9.36737226266968 -1.8246731167746524 -5.010529047007609 -1.5341523246910953 11.784871230660334" Properties=species:S:1:pos:R:3 unique_starting_index=18 config_type=initial n_minim_iter=6 stress="0.00037904520613151713 -0.0012444995345036113 0.0010711290043926526 -0.0012444995345036113 -0.00026160744521850124 -0.0016465779577526322 0.0010711290043926526 -0.0016465779577526322 0.001129503180652865" pbc="T T T"
Si      -0.96056962       6.26842703      -0.02313419
Si       1.06902347       0.05772300       9.52185887
Si      -4.28084591      -1.20167697       9.41744975
Si       0.73847712       0.29255222      10.55434161
Si      -8.29831615       3.80106687      10.74969225
Si       6.12880343       1.04328222      -1.48739365
Si       3.56648923       0.38420415      -1.99845153
Si      -1.78128311       0.08974546       9.22911124
Si      -1.80981714      -0.33500261      10.06055301
Si      -8.08652983       2.61021956       5.23359450
Si       1.11590294      -0.12984108       3.09074395
Si      -5.95097069       4.64899701       5.34611355
Si      -4.07449139      -1.14697052       8.43506682
Si      -3.57771179       5.57506291      -0.15808194
Si       0.58603080       0.63074596       4.11598102
Si      -0.57879103       5.49479712      -0.39894612
Si      -1.60619962      -0.94981623       3.51816303
Si       5.16654343      -4.89445618       7.76165208
Si       0.74896242       0.78850560       3.14471484
Si      -5.74075700       3.78657830       5.85802756
Si      -5.53657293       3.85714711       4.86110333
Si      -1.40837252      -0.72833302       8.95349186
22
Lattice="9.039898295777675 -2.900272380900956 -1.1865584260434632 -8.228713192166031 9.36546960401736 -1.8195520560689198 -5.012509498414888 -1.5330701649064493 11.784814327767013" Properties=species:S:1:pos:R:3 unique_starting_index=18 config_type=initial n_minim_iter=7 stress="-0.0020147377003856683 0.0033230335476585825 -0.0017131073106508388 0.0033230335476585825 0.0011755773003835248 -3.605533840164491e-05 -0.0017131073106508388 -3.605533840164491e-05 -0.00041407263808511434" pbc="T T T"
Si      -0.95750849       6.26961778      -0.02071845
Si       1.06701591       0.06112266       9.51989504
Si      -4.28276678      -1.20074012       9.41799050
Si       0.73572371       0.29705078      10.55260468
Si      -8.29630231       3.80133049      10.75241834
Si       6.12758090       1.04659044      -1.48851834
Si       3.56565861       0.38629447      -1.99874323
Si      -1.78276521       0.09137415       9.22847700
Si      -1.81228470      -0.33192018      10.06019377
Si      -8.08388592       2.60846148       5.23627808
Si       1.11498409      -0.12874437       3.09050475
Si      -5.94815929       4.64863121       5.34919439
Si      -4.07597948      -1.14629155       8.43530975
Si      -3.57419757       5.57496115      -0.15510308
Si       0.58509030       0.63182988       4.11529855
Si      -0.57584190       5.49587756      -0.39669242
Si      -1.60735484      -0.94963517       3.51839948
Si       5.16071266      -4.89013114       7.75852200
Si       0.74842545       0.78947102       3.14421313
Si      -5.73864196       3.78659638       5.86023184
Si      -5.53398238       3.85708938       4.86317297
Si      -1.40998771      -0.72676372       8.95303760
22
Lattice="9.041276274743621 -2.904656200869015 -1.187909850483313 -8.232446581474221 9.369010662051796 -1.8145896818147609 -5.01126113263332 -1.5240881571556144 11.7859390472589" Properties=species:S:1:pos:R:3 unique_starting_index=18 config_type=initial n_minim_iter=8 stress="0.0012126705448506916 -0.001467792376389613 -0.0009329975222831408 -0.001467792376389613 -0.001563882714269475 0.0024798628608253027 -0.0009329975222831408 0.0024798628608253027 0.0012288124293604811" pbc="T T T"
Si      -0.96006374       6.27077870      -0.01646567
Si       1.06907298       0.06650291       9.51977405
Si      -4.28271094      -1.19279636       9.41995928
Si       0.73620583       0.30510368      10.55299651
Si      -8.29674903       3.81087255      10.75702993
Si       6.12733833       1.04525412      -1.48794816
Si       3.56487480       0.38631131      -1.99776248
Si      -1.78201431       0.09671548       9.22910006
Si      -1.81222158      -0.32294134      10.06205424
Si      -8.08405285       2.61428882       5.23909875
Si       1.11644250      -0.12775539       3.09196108
Si      -5.94970263       4.65387606       5.35387025
Si      -4.07569345      -1.13918942       8.43652354
Si      -3.57723460       5.57782179      -0.15126485
Si       0.58535784       0.63289777       4.11573105
Si      -0.57752172       5.49711280      -0.39288196
Si      -1.60752499      -0.94661566       3.51940857
Si       5.16351874      -4.88639015       7.75803335
Si       0.74870689       0.78998301       3.14459983
Si      -5.73964408       3.79237419       5.86339638
Si      -5.53469716       3.86259079       4.86585890
Si      -1.40794264      -0.72174176       8.95442331
22
Lattice="9.034240505911376 -2.9041842186563693 -1.180910028339341 -8.225291269382533 9.378014894306355 -1.8239109595198246 -5.002152974319453 -1.5340496823472667 11.781102113479857" Properties=species:S:1:pos:R:3 unique_starting_index=18 config_type=initial n_minim_iter=9 stress="-0.0003698904643069977 0.0002439147872581694 0.001258492633118876 0.0002439147872581694 0.0008496578338404967 -0.00019374363902313738 0.001258492633118876 -0.00019374363902313738 -6.742720757625142e-05" pbc="T T T"
Si      -0.95739919       6.27673025      -0.02048483
Si       1.07513544       0.06124240       9.51530049
Si      -4.27615284      -1.19991321       9.41696755
Si       0.74137858       0.30082527      10.54785605
Si      -8.28430006       3.80523830      10.74880393
Si       6.12295165       1.05120169      -1.48509415
Si       3.56065116       0.39228828      -1.99378760
Si      -1.77528827       0.08954089       9.22368558
Si      -1.80662378      -0.32685224      10.05906810
Si      -8.07470957       2.61052667       5.23288237
Si       1.11914687      -0.12990606       3.09310834
Si      -5.94204101       4.65295816       5.34770201
Si      -4.06955819      -1.14540540       8.43370607
Si      -3.57508641       5.58470052      -0.15601142
Si       0.58804951       0.62963594       4.11380144
Si      -0.57534795       5.50395009      -0.39561707
Si      -1.60543145      -0.94958453       3.51926386
Si       5.16336789      -4.89304199       7.76270058
Si       0.75100489       0.78763436       3.14277207
Si      -5.73121800       3.79015730       5.85654896
Si      -5.52679996       3.86224587       4.85925233
Si      -1.40106676      -0.72911623       8.95151239
22
Lattice="9.035534636298548 -2.9036500379774832 -1.1839393937892921 -8.224877951166746 9.378391031047265 -1.8215594335232528 -5.007271131509219 -1.5356514858462862 11.782253277328788" Properties=species:S:1:pos:R:3 unique_starting_index=18 config_type=initial n_minim_iter=10 stress="0.0031266108973976698 -0.0007173335226536412 -0.003239380690545664 -0.0007173335226536412 -0.0009054290566672728 -0.0025786026396844046 -0.003239380690545664 -0.0025786026396844046 -0.0017062244823677472" pbc="T T T"
Si      -0.95688903       6.27667689      -0.02106798
Si       1.07242047       0.06028676       9.51338402
Si      -4.28079129      -1.20090956       9.41816230
Si       0.73742274       0.30075103      10.54563946
Si      -8.28934780       3.80327405      10.75141807
Si       6.12460050       1.05250254      -1.48767385
Si       3.56126055       0.39408527      -1.99385285
Si      -1.77860279       0.08779031       9.22250974
Si      -1.81177952      -0.32619236      10.05895988
Si      -8.07754637       2.60896441       5.23582585
Si       1.11862860      -0.13062040       3.09308985
Si      -5.94498297       4.65182162       5.34953174
Si      -4.07354551      -1.14607894       8.43540896
Si      -3.57622349       5.58574660      -0.15511578
Si       0.58687515       0.62844282       4.11295882
Si      -0.57433379       5.50442019      -0.39574302
Si      -1.60700823      -0.94981261       3.51964400
Si       5.16065880      -4.89334069       7.76100004
Si       0.75041329       0.78659315       3.14175591
Si      -5.73303135       3.78881433       5.85782685
Si      -5.52829953       3.86198984       4.86088146
Si      -1.40440223      -0.73080140       8.95106527
22
Lattice="9.029480532790904 -2.9025448514389733 -1.1831213389410367 -8.21822840393098 9.378034917033672 -1.8194981668646133 -5.001473480032978 -1.5312442965602375 11.783369986158005" Properties=species:S:1:pos:R:3 unique_starting_index=18 config_type=initial n_minim_iter=11 stress="0.0005628769786417985 4.151531617895537e-05 0.0006091398384354013 4.151531617895537e-05 0.0002561530755795592 0.000518725827420219 0.0006091398384354013 0.000518725827420219 -6.289943084323756e-05" pbc="T T T"
Si      -0.95427976       6.27780511      -0.01865540
Si       1.07562113       0.06556540       9.51554627
Si      -4.27661713      -1.19704346       9.41914944
Si       0.74036324       0.30816046      10.54766958
Si      -8.28115782       3.80694944      10.75508458
Si       6.12171611       1.05467201      -1.48609933
Si       3.55807367       0.39610928      -1.99139853
Si      -1.77430615       0.09123401       9.22302860
Si      -1.80950307      -0.31858643      10.06102195
Si      -8.07101231       2.60921981       5.23714416
Si       1.11946057      -0.12949986       3.09516923
Si      -5.93963163       4.65368436       5.35245872
Si      -4.06966268      -1.14242830       8.43703344
Si      -3.57425698       5.58766486      -0.15311513
Si       0.58849806       0.62990355       4.11441020
Si      -0.57181345       5.50555888      -0.39298326
Si      -1.60521318      -0.94832314       3.51938420
Si       5.15869719      -4.88863141       7.76265184
Si       0.75178988       0.78755321       3.14278381
Si      -5.72574680       3.79051741       5.85974324
Si      -5.52182913       3.86471605       4.86318587
Si      -1.40102428      -0.72775878       8.95234049
22
Lattice="9.022175528332953 -2.8961554268616947 -1.1853833479470288 -8.206199152310674 9.371240558498911 -1.8157836618888978 -5.001028506442019 -1.5310013037165657 11.785992903064985" Properties=species:S:1:pos:R:3 unique_starting_index=18 config_type=initial n_minim_iter=12 stress="0.0013745381123666377 0.00023907996333536976 0.0005276392400496791 0.00023907996333536976 8.475354224309288e-05 -6.03216701973961e-05 0.0005276392400496791 -6.03216701973961e-05 -0.00023205472756633559" pbc="T T T"
Si      -0.94961640       6.27723785      -0.01941507
Si       1.07512371       0.06983725       9.51636658
Si      -4.27740790      -1.19693654       9.42136286
Si       0.73922693       0.31388378      10.54816417
Si      -8.27564499       3.80364983      10.76140327
Si       6.12009230       1.06018532      -1.48664053
Si       3.55547741       0.40314358      -1.98860207
Si      -1.77352450       0.09148174       9.22162755
Si      -1.81264493      -0.31102017      10.06250361
Si      -8.06365062       2.60311458       5.24181236
Si       1.11975466      -0.12963695       3.09780375
Si      -5.93458161       4.65016430       5.35736119
Si      -4.07075291      -1.14160419       8.44004058
Si      -3.56993016       5.58744542      -0.15076744
Si       0.58854602       0.63038357       4.11491543
Si      -0.56610945       5.50257510      -0.39206636
Si      -1.60568643      -0.94943287       3.51847703
Si       5.15221133      -4.88142267       7.76312496
Si       0.75239674       0.78745675       3.14337557
Si      -5.71891352       3.78546603       5.86260363
Si      -5.51605568       3.86323905       4.86675945
Si      -1.40045560      -0.72868028       8.95481077
22
Lattice="9.014041891572285 -2.8885129663264566 -1.18898368240486 -8.192357732039925 9.361876790928935 -1.8096628590871937 -5.001527583650779 -1.529087814618831 11.78873645859186" Properties=species:S:1:pos:R:3 unique_starting_index=18 config_type=initial n_minim_iter=13 stress="0.002072485805111333 0.0006095335628132562 0.0007203708190332768 0.0006095335628132562 -0.00012489003979669586 0.00023173211251452424 0.0007203708190332768 0.00023173211251452424 0.00033523519931815413" pbc="T T T"
Si      -0.94259440       6.27526228      -0.01904423
Si       1.07311336       0.07568055       9.51669403
Si      -4.27855571      -1.19564696       9.42406458
Si       0.73600850       0.32113484      10.54905909
Si      -8.27044131       3.80155839      10.76844083
Si       6.11787758       1.06552740      -1.48734414
Si       3.55261661       0.41065931      -1.98531875
Si      -1.77402618       0.09322941       9.21956002
Si      -1.81639819      -0.30106223      10.06420969
Si      -8.05595773       2.59623786       5.24760560
Si       1.11941301      -0.12959085       3.10019721
Si      -5.92914900       4.64650650       5.36421554
Si      -4.07219330      -1.13954245       8.44269279
Si      -3.56450766       5.58564868      -0.14713639
Si       0.58677012       0.63132650       4.11503998
Si      -0.55855600       5.49921521      -0.38962177
Si      -1.60437571      -0.94878844       3.51739631
Si       5.14453948      -4.87174852       7.76214598
Si       0.75158409       0.78762688       3.14393040
Si      -5.71201321       3.77994931       5.86678515
Si      -5.51040129       3.86139497       4.87099650
Si      -1.40018168      -0.72861862       8.95756096
22
Lattice="9.006957429510168 -2.881953647311836 -1.1912052517003309 -8.180115295350816 9.3556099013072 -1.8053628455058852 -5.002078125857055 -1.5299743990415684 11.787289697405996" Properties=species:S:1:pos:R:3 unique_starting_index=18 config_type=initial n_minim_iter=14 stress="0.0028393378083459257 0.0010301360795284195 0.000947086203335213 0.0010301360795284195 8.208955147117749e-05 8.478401794238492e-05 0.000947086203335213 8.478401794238492e-05 0.0008856498612218207" pbc="T T T"
Si      -0.93731942       6.27270929      -0.01995518
Si       1.07197451       0.07959038       9.51378717
Si      -4.27908917      -1.19681961       9.42375771
Si       0.73447698       0.32575167      10.54711486
Si      -8.26533046       3.79941364      10.76911809
Si       6.11645986       1.07094025      -1.48747177
Si       3.54918794       0.41722393      -1.98064232
Si      -1.77485032       0.09301671       9.21364292
Si      -1.81991381      -0.29326208      10.06252476
Si      -8.04885304       2.58954414       5.25045859
Si       1.11972685      -0.13000106       3.10069670
Si      -5.92490329       4.64300123       5.36831858
Si      -4.07302099      -1.13970498       8.44175107
Si      -3.55865301       5.58446007      -0.14508039
Si       0.58490574       0.63170720       4.11365843
Si      -0.55323219       5.49732464      -0.38835640
Si      -1.60428937      -0.94866706       3.51568002
Si       5.13716095      -4.86583015       7.75897162
Si       0.75061233       0.78748183       3.14278275
Si      -5.70540370       3.77494052       5.86802793
Si      -5.50519589       3.85972960       4.87185057
Si      -1.40017834      -0.73059437       8.95665663
22
Lattice="8.995997209057691 -2.873045323245264 -1.1932959375148742 -8.161322170518266 9.350576102647835 -1.799392489814498 -5.002749719892796 -1.5340721858829487 11.778135354791116" Properties=species:S:1:pos:R:3 unique_starting_index=18 config_type=initial n_minim_iter=15 stress="0.004372029485199684 0.0017470916160482457 0.0013184814748418154 0.0017470916160482457 0.00038250707907712736 0.00012443211944598598 0.0013184814748418154 0.00012443211944598598 0.0017044156791437399" pbc="T T T"
Si      -0.92860693       6.27281825      -0.02209293
Si       1.06853827       0.08465774       9.50405748
Si      -4.27982783      -1.20129862       9.41790994
Si       0.73163128       0.32988084      10.53809682
Si      -8.25914826       3.79524111      10.76017329
Si       6.11428223       1.08041071      -1.48752139
Si       3.54381030       0.42913126      -1.97017757
Si      -1.77382905       0.09075565       9.19804376
Si      -1.82482212      -0.28067421      10.05319610
Si      -8.03784671       2.58014112       5.25093995
Si       1.12010459      -0.13076464       3.09875470
Si      -5.91929956       4.63783736       5.37192421
Si      -4.07492035      -1.14261120       8.43497584
Si      -3.55026525       5.58363010      -0.14375388
Si       0.58340767       0.63174089       4.10921952
Si      -0.54353670       5.49605791      -0.38804541
Si      -1.60494805      -0.95018129       3.51441168
Si       5.12543437      -4.86020208       7.74953829
Si       0.74932059       0.78645775       3.13808589
Si      -5.69426347       3.76825873       5.86566854
Si      -5.49675541       3.85908518       4.86925216
Si      -1.39966439      -0.73602297       8.95125091
22
Lattice="8.978828700656091 -2.862965750205865 -1.1950069822369693 -8.132318301089747 9.35728576822965 -1.7960868589823646 -5.003885786302681 -1.5499445465511426 11.765760627327596" Properties=species:S:1:pos:R:3 unique_starting_index=18 config_type=initial n_minim_iter=16 stress="0.008531059616559897 0.0030603028293204365 0.0023392713789408435 0.0030603028293204365 0.003233490535158039 -0.0005041990435485629 0.0023392713789408435 -0.0005041990435485629 0.0044051159036120726" pbc="T T T"
Si      -0.91522854       6.28080739      -0.02927590
Si       1.06251408       0.08760162       9.49104264
Si      -4.28020890      -1.21519573       9.41045468
Si       0.72690469       0.33056458      10.52520674
Si      -8.24856677       3.78781864      10.74320959
Si       6.11210649       1.09689407      -1.49012658
Si       3.53388008       0.45265906      -1.95250218
Si      -1.77344482       0.07886878       9.17117734
Si      -1.83618364      -0.26695125      10.03663610
Si      -8.02132112       2.56726680       5.25003787
Si       1.11976741      -0.13381427       3.09534320
Si      -5.91056452       4.63209918       5.37657264
Si      -4.07790804      -1.15338168       8.42693168
Si      -3.53704971       5.58896977      -0.14649673
Si       0.58302418       0.62905661       4.10240104
Si      -0.52930723       5.50101126      -0.38840844
Si      -1.60483735      -0.95534725       3.51321277
Si       5.11077943      -4.86135008       7.73861750
Si       0.74822913       0.78307562       3.12940308
Si      -5.67742135       3.75813894       5.85950722
Si      -5.48536391       3.86155491       4.86271393
Si      -1.40165133      -0.75494966       8.94689531
22
Lattice="8.963898262368119 -2.855727428394266 -1.1988725829454945 -8.106162779422114 9.369285339403165 -1.7927821563191069 -5.007516301258366 -1.5657810469919389 11.761469325890753" Properties=species:S:1:pos:R:3 unique_starting_index=18 config_type=initial n_minim_iter=17 stress="0.0146491516089372 0.004917444663072799 0.0036047910622515654 0.004917444663072799 0.0075309234384314475 -0.0009199705128013456 0.0036047910622515654 -0.0009199705128013456 0.009022860946739797" pbc="T T T"
Si      -0.90356624       6.29032976      -0.03579651
Si       1.05421834       0.08970412       9.48495920
Si      -4.28511535      -1.22945741       9.40895921
Si       0.72029828       0.33025937      10.51843711
Si      -8.24122920       3.78330778      10.73481552
Si       6.11082970       1.11257076      -1.49535165
Si       3.52672525       0.47643739      -1.93580189
Si      -1.77405119       0.06665155       9.14962121
Si      -1.84781265      -0.25287529      10.02555396
Si      -8.00744464       2.55770405       5.25292052
Si       1.11873494      -0.13686867       3.09361922
Si      -5.90233897       4.62936497       5.38536493
Si      -4.08496194      -1.16452094       8.42532857
Si      -3.52528347       5.59667685      -0.14967246
Si       0.58180440       0.62599396       4.09746021
Si      -0.51786399       5.50873140      -0.38689994
Si      -1.60541634      -0.95930868       3.51246739
Si       5.09386773      -4.86602744       7.73101768
Si       0.74661769       0.77977162       3.12299156
Si      -5.66201676       3.75044601       5.85723717
Si      -5.47620709       3.86684916       4.86023898
Si      -1.40306696      -0.77422095       8.94942878
22
Lattice="8.954653329434034 -2.8517839088925596 -1.2054444631767047 -8.088585925255495 9.378040570048869 -1.7856102357251544 -5.013475524092496 -1.5724290188157295 11.763592225043878" Properties=species:S:1:pos:R:3 unique_starting_index=18 config_type=initial n_minim_iter=18 stress="0.018723241000714666 0.005680866568517853 0.003924262203985399 0.005680866568517853 0.010469523983163136 -0.0006886734841910441 0.003924262203985399 -0.0006886734841910441 0.01327555809226882" pbc="T T T"
Si      -0.89573786       6.29929891      -0.03824659
Si       1.04525489       0.09490256       9.48533247
Si      -4.28983376      -1.23490227       9.41321529
Si       0.71456308       0.33279294      10.51808302
Si      -8.24031356       3.78464505      10.73741902
Si       6.11132181       1.12322070      -1.50016027
Si       3.51945862       0.49228101      -1.92294537
Si      -1.77608746       0.05806412       9.13536199
Si      -1.85865308      -0.23664363      10.01790494
Si      -7.99832864       2.55434664       5.25911257
Si       1.11763990      -0.13806120       3.09370555
Si      -5.90000119       4.62838504       5.39665625
Si      -4.09140414      -1.16751803       8.43015388
Si      -3.51697026       5.60180878      -0.15024336
Si       0.57881785       0.62494129       4.09391671
Si      -0.50925666       5.51458176      -0.38382988
Si      -1.60773976      -0.95924364       3.51410756
Si       5.07911139      -4.86604583       7.72532538
Si       0.74364853       0.77792152       3.12150827
Si      -5.65241241       3.74598599       5.85883819
Si      -5.47315767       3.87264683       4.86243767
Si      -1.40527943      -0.78637901       8.95592527
22
Lattice="8.94701504875843 -2.848792488656926 -1.2072083066389703 -8.075208965957225 9.385877519387432 -1.782163625937526 -5.015563266455648 -1.579987655243191 11.7552772009466" Properties=species:S:1:pos:R:3 unique_starting_index=18 config_type=initial n_minim_iter=19 stress="0.019236339421103556 0.005435247455199528 0.0035891829979028227 0.005435247455199528 0.013079122892731615 -0.001707066798966036 0.0035891829979028227 -0.001707066798966036 0.013910924386846447" pbc="T T T"
Si      -0.89160706       6.30719057      -0.04386883
Si       1.04125058       0.09814183       9.47792694
Si      -4.29239787      -1.24142108       9.40990966
Si       0.71010917       0.33316930      10.51123822
Si      -8.23738660       3.78360362      10.72826175
Si       6.11129360       1.12922298      -1.50022583
Si       3.51188456       0.50590427      -1.90877291
Si      -1.77169880       0.04828600       9.11284206
Si      -1.86367964      -0.22437679      10.00117187
Si      -7.99087399       2.55017562       5.25762623
Si       1.11734476      -0.13998965       3.09021785
Si      -5.89693482       4.62634619       5.39915226
Si      -4.09659061      -1.17049297       8.42690093
Si      -3.51019180       5.60495327      -0.15160458
Si       0.57720089       0.62446490       4.08968647
Si      -0.50381318       5.52088749      -0.38213707
Si      -1.60856072      -0.95810383       3.51382602
Si       5.07008502      -4.86654130       7.71728214
Si       0.74179833       0.77664535       3.11817666
Si      -5.64272187       3.74032074       5.85226230
Si      -5.46799627       3.87766055       4.85691493
Si      -1.40522040      -0.80263848       8.95567237
22
Lattice="8.94068024704112 -2.8457470034248433 -1.2121911138837909 -8.063794384760433 9.384808208503573 -1.7682018493125609 -5.0188679203262 -1.5738812861225668 11.74179666302691" Properties=species:S:1:pos:R:3 unique_starting_index=18 config_type=initial n_minim_iter=20 stress="0.016755689883588977 0.0034729088940938487 0.001797898597888844 0.0034729088940938487 0.012669986844150185 -0.0007714372767076492 0.001797898597888844 -0.0007714372767076492 0.014528808129017738" pbc="T T T"
Si      -0.88623785       6.31109627      -0.04317616
Si       1.03653563       0.10807444       9.46823178
Si      -4.29625623      -1.23730578       9.40388798
Si       0.70651325       0.34009615      10.50190672
Si      -8.23691987       3.79140515      10.71815972
Si       6.11072934       1.13343330      -1.49907291
Si       3.50583841       0.51788605      -1.89033536
Si      -1.76755152       0.04530429       9.08283307
Si      -1.87232326      -0.20104743       9.97871193
Si      -7.98610560       2.55008885       5.25756449
Si       1.11673038      -0.13798378       3.08364786
Si      -5.89483580       4.62649050       5.40575507
Si      -4.10243369      -1.16190336       8.41971815
Si      -3.50506517       5.60486754      -0.14527297
Si       0.57516534       0.62801633       4.08698579
Si      -0.49974083       5.52251634      -0.37414969
Si      -1.61244120      -0.95128515       3.51128433
Si       5.06185536      -4.85582897       7.70069867
Si       0.73981744       0.77800427       3.11377488
Si      -5.63459314       3.73723992       5.84698151
Si      -5.46385345       3.88542451       4.85183974
Si      -1.40450924      -0.81309382       8.95333618
22
Lattice="8.937549726953502 -2.846771771720954 -1.204385864367499 -8.062966179932834 9.388796296932085 -1.7733232191393398 -5.0102372631640835 -1.577304214239153 11.72390868865545" Properties=species:S:1:pos:R:3 unique_starting_index=18 config_type=initial n_minim_iter=21 stress="0.008426805300360227 -0.0004942195305742129 0.0005489974803850755 -0.0004942195305742129 0.011225447874701837 -0.0012589154842116775 0.0005489974803850755 -0.0012589154842116775 0.009667770989685694" pbc="T T T"
Si      -0.88648464       6.31527743      -0.04770694
Si       1.04104961       0.10517963       9.45748130
Si      -4.28960060      -1.24225168       9.39174581
Si       0.71209896       0.33880247      10.49084415
Si      -8.22828190       3.79070104      10.69716194
Si       6.10896278       1.13266656      -1.49316439
Si       3.50032570       0.52421600      -1.87260535
Si      -1.75656694       0.03384668       9.05661850
Si      -1.86950031      -0.19425209       9.95565708
Si      -7.98154244       2.55083613       5.24411701
Si       1.11881811      -0.13721128       3.07818471
Si      -5.88973528       4.62592306       5.39780681
Si      -4.09659800      -1.16026093       8.40698250
Si      -3.50420190       5.60408329      -0.14821312
Si       0.57703127       0.62732311       4.08458010
Si      -0.49960442       5.52299004      -0.37325648
Si      -1.61203047      -0.94875097       3.50829418
Si       5.06459448      -4.85973438       7.69301259
Si       0.74267338       0.77808147       3.11000226
Si      -5.62765733       3.73317289       5.83226965
Si      -5.46063491       3.88896736       4.83668128
Si      -1.39379475      -0.82694178       8.94817954
