24
Lattice="15.467965104667009 0.9728867174802631 -7.742187554084695 -7.025777240186119 7.149449597189223 6.721284888523803 -8.654542300318159 4.183092148199477 20.03810731740475" Properties=species:S:1:pos:R:3 unique_starting_index=90 config_type=initial n_minim_iter=1 energy=-4236.298868913166 free_energy=-4236.298868913166 pbc="T T T"
Si       7.47391148       3.68143449       7.84576910
Si      -3.53569081       1.96368509       4.77181577
Si       5.93554289       8.34480132       5.43268566
Si      -2.76316538       2.02165750       4.08724623
Si       2.14315708       7.31740172      16.86702246
Si     -13.13446755       9.12409831      22.30834589
Si      -2.81431467       2.62313249       5.09296515
Si       1.98768689       8.74615624      15.46017485
Si     -13.77417185      10.48821550      22.16895999
Si       6.48225059       5.73145398       6.39222817
Si       1.29975984       5.44253154       3.37837969
Si       5.99658333       7.86428396       4.63955824
Si       4.69033690       9.50346089       2.95211430
Si       3.66266161       5.70078109      11.22991319
Si      -4.11314073       4.19700943       3.41573885
Si     -14.49794465      10.52165498      22.88127046
Si      -3.84307475       2.38608766       5.63428270
Si       1.92227401       9.22915867      16.27826636
Si      -3.13737700       7.02335199      15.33937662
Si      -8.30022513       5.42444236      14.64050341
Si       1.17326109      10.77637168      13.85209646
Si      11.55262103       2.03713335      -2.44936641
Si       7.45492469       5.92410670       5.95356977
Si       0.55691385       6.71476644       4.84882733
24
Lattice="15.46919161009942 0.9713541358831128 -7.73993264452967 -7.025999938120341 7.148077275375178 6.721238206856545 -8.655150762869225 4.186043395928636 20.03362553573618" Properties=species:S:1:pos:R:3 unique_starting_index=90 config_type=initial n_minim_iter=2 stress="-0.005335628658843229 0.0051556192779039734 -0.003846654015793571 0.0051556192779039734 -0.006316941349639842 0.0036414787869793173 -0.003846654015793571 0.0036414787869793173 -0.0007098494363596233" pbc="T T T"
Si       7.47451363       3.68232095       7.84443037
Si      -3.53586923       1.96400333       4.77088681
Si       5.93637714       8.34328567       5.43329909
Si      -2.76333960       2.02179183       4.08668625
Si       2.14348690       7.31902308      16.86406878
Si     -13.13525847       9.12549149      22.30464739
Si      -2.81444316       2.62325474       5.09216184
Si       1.98814095       8.74675174      15.45805083
Si     -13.77482281      10.48909795      22.16541986
Si       6.48291837       5.73115906       6.39179881
Si       1.30007124       5.44135864       3.37873865
Si       5.99744138       7.86264003       4.64010463
Si       4.69110784       9.50085975       2.95358363
Si       3.66309754       5.70158524      11.22813587
Si      -4.11319353       4.19596441       3.41592904
Si     -14.49868219      10.52262788      22.87762686
Si      -3.84332012       2.38642023       5.63337733
Si       1.92266637       9.22974201      16.27585801
Si      -3.13741574       7.02433949      15.33685811
Si      -8.30068616       5.42562965      14.63777972
Si       1.17372477      10.77583800      13.85082323
Si      11.55346280       2.03638772      -2.44831326
Si       7.45571000       5.92370695       5.95333147
Si       0.55720942       6.71347050       4.84914486
24
Lattice="15.483176420768428 0.9565555442256058 -7.7211991733715735 -7.035939291930593 7.152933945128675 6.712083993677938 -8.655964172734116 4.197950002281819 20.008639662904603" Properties=species:S:1:pos:R:3 unique_starting_index=90 config_type=initial n_minim_iter=3 stress="0.004522089964021604 -0.0035407250801129274 0.001426650811399626 -0.0035407250801129274 -0.0025540210992310713 0.0024409458465365266 0.001426650811399626 0.0024409458465365266 -0.0006176118005006806" pbc="T T T"
Si       7.48635240       3.67778660       7.84280464
Si      -3.53847076       1.96794657       4.76339008
Si       5.94188828       8.33740104       5.43568725
Si      -2.76593414       2.02465987       4.08177773
Si       2.15199320       7.32100292      16.85070128
Si     -13.14468861       9.13930149      22.27728854
Si      -2.81664339       2.62603291       5.08552003
Si       1.99478696       8.74718822      15.44682756
Si     -13.78524984      10.50338998      22.13643455
Si       6.49114970       5.72602892       6.39162404
Si       1.29981567       5.43926120       3.37781717
Si       6.00313341       7.85568429       4.64179956
Si       4.69201523       9.49476660       2.95698271
Si       3.67113108       5.70053274      11.22094355
Si      -4.11876681       4.19778952       3.41164352
Si     -14.50984021      10.53739259      22.84809445
Si      -3.84652580       2.39055046       5.62619769
Si       1.92882971       9.23010581      16.26263692
Si      -3.13648336       7.02930868      15.32144177
Si      -8.30553529       5.43505412      14.61860100
Si       1.17635128      10.77597908      13.84068670
Si      11.56426734       2.02658875      -2.43750798
Si       7.46504203       5.91786977       5.95455282
Si       0.55594304       6.71218385       4.84704493
24
Lattice="15.470284679390787 0.9838295139040635 -7.70143727983068 -7.01944279037022 7.1430763053115305 6.689762557227885 -8.63814285910017 4.1722175912144905 19.960716791753143" Properties=species:S:1:pos:R:3 unique_starting_index=90 config_type=initial n_minim_iter=4 stress="-0.00020491790692566382 0.0011264456945484587 0.00015556217544129597 0.0011264456945484587 9.812594198374155e-05 -0.00021178768850327757 0.00015556217544129597 -0.00021178768850327757 -0.0025778438573828013" pbc="T T T"
Si       7.48681756       3.68183618       7.82618497
Si      -3.53093567       1.96196508       4.74731857
Si       5.95041684       8.34697170       5.42193146
Si      -2.76112973       2.01972050       4.07231251
Si       2.16446533       7.31369105      16.81171022
Si     -13.11946289       9.10790761      22.22457970
Si      -2.80984642       2.61950850       5.07001438
Si       2.00996133       8.74371253      15.40691509
Si     -13.75347826      10.47479865      22.07457594
Si       6.49511293       5.73150100       6.37552718
Si       1.30639548       5.44112379       3.36539696
Si       6.01154484       7.86269100       4.62509150
Si       4.70173137       9.50545047       2.94359480
Si       3.67912386       5.69953069      11.19313113
Si      -4.10692357       4.19008105       3.40118109
Si     -14.47805448      10.50551248      22.78744747
Si      -3.83980848       2.38297942       5.61292204
Si       1.94257814       9.22457508      16.21708395
Si      -3.12082238       7.01676197      15.28251892
Si      -8.28750200       5.41599090      14.57930698
Si       1.19304403      10.77464353      13.80092076
Si      11.55615392       2.04546376      -2.43032982
Si       7.46936666       5.92682094       5.93993765
Si       0.56474409       6.71371290       4.83193649
24
Lattice="15.468062714569875 0.9760372925239788 -7.707364601982346 -7.021371668344618 7.1440997304110425 6.696362519328574 -8.637261752900864 4.17632943099905 19.980061076831213" Properties=species:S:1:pos:R:3 unique_starting_index=90 config_type=initial n_minim_iter=5 stress="-9.800593440857088e-05 0.000297745194009793 0.00047009128332770533 0.000297745194009793 -0.004054174414052807 -0.0014052150112005076 0.00047009128332770533 -0.0014052150112005076 0.003309516252235809" pbc="T T T"
Si       7.48329619       3.67698180       7.83595962
Si      -3.52959856       1.96340710       4.74968493
Si       5.94630647       8.34453419       5.43048709
Si      -2.76146208       2.02067272       4.07781060
Si       2.16188761       7.31505402      16.83059894
Si     -13.12431761       9.10878930      22.25579568
Si      -2.81016166       2.61925230       5.07349443
Si       2.00945021       8.74153145      15.42122340
Si     -13.75189446      10.47948737      22.09283494
Si       6.49238041       5.72562166       6.38352880
Si       1.30376717       5.43765543       3.36762827
Si       6.00809561       7.85813482       4.62801212
Si       4.69805753       9.50041890       2.94684757
Si       3.67809982       5.69711080      11.20418942
Si      -4.10538659       4.19053184       3.40441710
Si     -14.47904091      10.50994820      22.81012242
Si      -3.84124279       2.38500165       5.62081893
Si       1.93857129       9.21836929      16.23158640
Si      -3.12230453       7.01699391      15.29825638
Si      -8.28678247       5.41938355      14.59200427
Si       1.18988131      10.77374449      13.81334088
Si      11.55599449       2.03837231      -2.42894752
Si       7.46836130       5.92270152       5.94764879
Si       0.56091601       6.71210187       4.83879792
24
Lattice="15.474112090435865 0.9543275904824398 -7.690955052475638 -7.03024127824472 7.179191799984048 6.694343260911531 -8.648279504656124 4.228218452946328 19.940590564410048" Properties=species:S:1:pos:R:3 unique_starting_index=90 config_type=initial n_minim_iter=6 stress="0.0017965906767814083 -0.0012553315216257879 -0.004059209733577769 -0.0012553315216257879 0.005837928716025312 0.0032031505669460163 -0.004059209733577769 0.0032031505669460163 -0.0024837208415103775" pbc="T T T"
Si       7.47850610       3.69420073       7.82164669
Si      -3.53277174       1.97880453       4.74199864
Si       5.94056451       8.37321875       5.43072071
Si      -2.76392590       2.03481217       4.07288711
Si       2.15181177       7.36336565      16.80324277
Si     -13.14495546       9.17563835      22.23184125
Si      -2.81398626       2.63602351       5.06528824
Si       2.00191420       8.78955462      15.39501346
Si     -13.76621194      10.55464194      22.05790610
Si       6.48793876       5.74608802       6.37617869
Si       1.29879342       5.45535427       3.36646150
Si       6.00348969       7.88320280       4.62741137
Si       4.69228805       9.52696647       2.95353059
Si       3.67268167       5.72922022      11.18435501
Si      -4.10860951       4.21255832       3.40309410
Si     -14.49659919      10.58731480      22.77630163
Si      -3.84677954       2.40439170       5.61380068
Si       1.92620439       9.26893980      16.20428290
Si      -3.13265295       7.06421704      15.27399088
Si      -8.29601028       5.46511616      14.56664309
Si       1.17927704      10.82658785      13.79637672
Si      11.55991768       2.03115169      -2.42052932
Si       7.46609256       5.94449521       5.94124352
Si       0.55348645       6.73833334       4.84004576
24
Lattice="15.422688338825534 0.9390359076714129 -7.590649586931427 -6.996114379101848 7.186687850174337 6.643843344384455 -8.55308169037156 4.252023957005267 19.82494654726363" Properties=species:S:1:pos:R:3 unique_starting_index=90 config_type=initial n_minim_iter=7 stress="0.0037851921189815513 0.0001463076475833833 0.001345255289374985 0.0001463076475833833 -0.0013640272144164762 0.002209226471600593 0.001345255289374985 0.002209226471600593 -0.0014434958012778472" pbc="T T T"
Si       7.49736756       3.69593958       7.82694552
Si      -3.50981422       1.98388067       4.70998308
Si       5.95723371       8.37329462       5.44563907
Si      -2.74070386       2.04004456       4.04657320
Si       2.21747932       7.38041480      16.75701977
Si     -13.04920050       9.18611025      22.12659287
Si      -2.78919617       2.63965797       5.03244554
Si       2.07021779       8.80257817      15.33863546
Si     -13.65015577      10.57885060      21.91127569
Si       6.50429522       5.74659186       6.38393622
Si       1.30764192       5.45239551       3.35812728
Si       6.01468359       7.88625434       4.64216954
Si       4.69559987       9.52592429       2.96739915
Si       3.71678210       5.73835293      11.15651689
Si      -4.08720864       4.22441218       3.37129858
Si     -14.38300024      10.61329502      22.62881526
Si      -3.82161533       2.41248373       5.57924097
Si       1.98665802       9.28034089      16.14886836
Si      -3.06616443       7.07961176      15.20548901
Si      -8.22217201       5.48254338      14.47344579
Si       1.23426118      10.84114809      13.75295463
Si      11.53643036       2.02421411      -2.35410034
Si       7.48388194       5.95041779       5.95397357
Si       0.56642298       6.74292968       4.83424605
24
Lattice="15.344439326982442 0.9126796491271684 -7.547513355701419 -6.969573799475663 7.216812878165745 6.616535650923495 -8.50335098187446 4.286213213757319 19.743725056101447" Properties=species:S:1:pos:R:3 unique_starting_index=90 config_type=initial n_minim_iter=8 stress="-0.003942836572351304 -0.0032390851701871192 -0.001039902174514148 -0.0032390851701871192 -0.00018391884587756397 0.0013793358697527498 -0.001039902174514148 0.0013793358697527498 -0.006772052757605143" pbc="T T T"
Si       7.46039013       3.69577243       7.80657507
Si      -3.49768742       1.99865165       4.69010868
Si       5.92482683       8.38425495       5.43546622
Si      -2.72495930       2.05378170       4.02648034
Si       2.20886122       7.40649679      16.70174967
Si     -12.99474311       9.22092352      22.06905475
Si      -2.77683908       2.65285055       5.00926272
Si       2.06991822       8.82440924      15.28036367
Si     -13.57877464      10.63609254      21.81362880
Si       6.46994840       5.75280365       6.36795685
Si       1.29416618       5.46032948       3.34373780
Si       5.98135394       7.89905835       4.63591492
Si       4.66156970       9.54390877       2.96116280
Si       3.70253354       5.75208060      11.11600595
Si      -4.06836502       4.24410522       3.35672747
Si     -14.31305567      10.67159226      22.53213160
Si      -3.80552020       2.42840908       5.55691490
Si       1.97610852       9.30229728      16.09067453
Si      -3.05063370       7.10873826      15.14922912
Si      -8.17816835       5.51508618      14.41291145
Si       1.22451912      10.87443448      13.70517919
Si      11.47867046       2.01050739      -2.32955503
Si       7.44788458       5.96082075       5.93703697
Si       0.55300169       6.76136025       4.82449337
24
Lattice="15.3849222997946 0.91333073579842 -7.5518125694546105 -6.976722939767606 7.24399158850924 6.645535830814456 -8.513315728114318 4.341740260107888 19.786823124713" Properties=species:S:1:pos:R:3 unique_starting_index=90 config_type=initial n_minim_iter=9 stress="0.008370408687697272 0.0023354718467867197 -0.004455556306047676 0.0023354718467867197 0.001428182891299783 0.006551100503253201 -0.004455556306047676 0.006551100503253201 0.0026207953025076105" pbc="T T T"
Si       7.48564843       3.73582406       7.83458969
Si      -3.50804021       2.01362475       4.70246108
Si       5.95674587       8.42808185       5.47158341
Si      -2.72533724       2.07016569       4.03326006
Si       2.22942064       7.47517600      16.75535266
Si     -13.01748531       9.26870483      22.16109759
Si      -2.77919967       2.67073186       5.02183125
Si       2.10042637       8.89207315      15.32641816
Si     -13.58777786      10.70728855      21.86848728
Si       6.49633622       5.79445655       6.39744131
Si       1.30407507       5.48124491       3.35968782
Si       6.01148015       7.94259823       4.66916807
Si       4.68795795       9.58514156       2.99137288
Si       3.72642369       5.80275694      11.14850728
Si      -4.06851360       4.25830551       3.37471730
Si     -14.32824184      10.74227765      22.59173369
Si      -3.81230782       2.44615082       5.57304591
Si       1.99840807       9.37130223      16.14299407
Si      -3.04460599       7.16521638      15.19523766
Si      -8.18575105       5.55762873      14.45112407
Si       1.24806475      10.94423774      13.75814287
Si      11.51076979       2.02474988      -2.31919314
Si       7.48089632       6.00668923       5.96207914
Si       0.56092049       6.79409187       4.85643654
24
Lattice="15.347686072717618 0.8801468022072487 -7.490842219978906 -6.961971317943104 7.269531702898289 6.622139283817295 -8.458870150129856 4.389481554073812 19.720101376949277" Properties=species:S:1:pos:R:3 unique_starting_index=90 config_type=initial n_minim_iter=10 stress="0.006623517288753614 -0.0011392683314728534 -0.0032321552935828364 -0.0011392683314728534 0.00011847060663963182 0.00754803217559412 -0.0032321552935828364 0.00754803217559412 -0.0006101913510881772" pbc="T T T"
Si       7.49269819       3.74073320       7.83996534
Si      -3.49763220       2.02678645       4.68402353
Si       5.95325024       8.43823600       5.48536969
Si      -2.71352422       2.08550623       4.01459073
Si       2.25814584       7.50478566      16.72917177
Si     -12.96471470       9.30755787      22.11656667
Si      -2.76729164       2.68440058       5.00355676
Si       2.12960340       8.92456007      15.30288944
Si     -13.52677701      10.77050851      21.78698937
Si       6.49781922       5.80307469       6.40650322
Si       1.30184975       5.48579369       3.35778388
Si       6.00574790       7.95312882       4.68415348
Si       4.67918552       9.59462421       3.01026561
Si       3.74514457       5.82037497      11.13335573
Si      -4.05901041       4.27108100       3.36628967
Si     -14.26648044      10.80458595      22.50783164
Si      -3.79718293       2.46240575       5.55325499
Si       2.02321803       9.40220758      16.11718302
Si      -3.01253848       7.19984507      15.16015776
Si      -8.14620327       5.59488097      14.40281503
Si       1.26788850      10.97521004      13.74269707
Si      11.48942910       2.00619156      -2.27539895
Si       7.48229083       6.01377793       5.97063610
Si       0.55949755       6.80772944       4.86038790
24
Lattice="15.31255715703732 0.910374820603036 -7.385876093793693 -6.9124747674225135 7.3278555178487395 6.577439322160523 -8.368389870852383 4.457066700075402 19.58209189661987" Properties=species:S:1:pos:R:3 unique_starting_index=90 config_type=initial n_minim_iter=11 stress="0.009791123816242234 0.003351284232553414 -0.006591088791674257 0.003351284232553414 0.001522242405207904 0.01009650680511814 -0.006591088791674257 0.01009650680511814 -0.007727566530212536" pbc="T T T"
Si       7.53502908       3.81279812       7.83318619
Si      -3.47561363       2.04389665       4.64467935
Si       5.99719817       8.54932926       5.50159134
Si      -2.69140828       2.11671138       3.97519063
Si       2.32982025       7.62370469      16.64874979
Si     -12.86553620       9.33908567      22.05450305
Si      -2.74205339       2.70821294       4.96300623
Si       2.21328645       9.05748548      15.24247460
Si     -13.39408514      10.88157553      21.61714333
Si       6.53621710       5.89882587       6.40860560
Si       1.32336106       5.53663548       3.34209042
Si       6.04392650       8.05829959       4.69550218
Si       4.72240845       9.71156457       3.03822723
Si       3.80499974       5.91076912      11.08052766
Si      -4.02889656       4.31756173       3.34857760
Si     -14.13157786      10.90356636      22.33258316
Si      -3.76588628       2.48800532       5.51194211
Si       2.10082767       9.52171388      16.05093036
Si      -2.93655638       7.29408582      15.08081503
Si      -8.07475635       5.65707173      14.30290709
Si       1.35158438      11.11477042      13.69487292
Si      11.47016286       2.05309503      -2.20192461
Si       7.52110249       6.11078040       5.96537038
Si       0.58449468       6.88386949       4.86454391
24
Lattice="15.259554575552194 0.8627678733143107 -7.396618264191015 -6.900021588002467 7.3710580524513025 6.612937925349407 -8.340740031985986 4.537840722606999 19.6417590953674" Properties=species:S:1:pos:R:3 unique_starting_index=90 config_type=initial n_minim_iter=12 stress="0.004673639281007001 -0.0005907652015430328 -0.008472031289668457 -0.0005907652015430328 0.0008655358005053263 0.014365940597961974 -0.008472031289668457 0.014365940597961974 -0.004838132921833191" pbc="T T T"
Si       7.51193928       3.83021367       7.86656924
Si      -3.46522519       2.06923156       4.66102200
Si       5.96845043       8.56894971       5.54306583
Si      -2.68581233       2.13919140       3.98860801
Si       2.31449218       7.67968417      16.71044439
Si     -12.83939801       9.41893815      22.16291317
Si      -2.73780097       2.72798062       4.97970457
Si       2.19882468       9.11587372      15.30672456
Si     -13.35531720      10.98666298      21.69216373
Si       6.51104737       5.92044825       6.44431265
Si       1.31017600       5.55109057       3.36155117
Si       6.01409578       8.07691675       4.73187232
Si       4.69547143       9.73312274       3.07515288
Si       3.78945055       5.94684768      11.12119359
Si      -4.02008237       4.34512257       3.37220409
Si     -14.08991914      11.00763627      22.41008192
Si      -3.75504198       2.51568550       5.53016354
Si       2.08226233       9.58244369      16.12118932
Si      -2.93324390       7.35654740      15.14014581
Si      -8.05496716       5.72450335      14.35131170
Si       1.33582242      11.17572804      13.75915406
Si      11.42689928       2.03112023      -2.19355237
Si       7.49078976       6.12716825       5.99766982
Si       0.56926259       6.90969389       4.90094517
24
Lattice="15.30651021344468 0.9103237298061836 -7.345884106666549 -6.893541544696742 7.365294872423993 6.579811511255784 -8.323298755732838 4.518678949364255 19.569682741371093" Properties=species:S:1:pos:R:3 unique_starting_index=90 config_type=initial n_minim_iter=13 stress="0.010167939478096301 0.003626874781536751 -0.004907353960877462 0.003626874781536751 0.001984218357097837 0.01061901972090451 -0.004907353960877462 0.01061901972090451 -0.011592835772806951" pbc="T T T"
Si       7.57066927       3.86180759       7.85619430
Si      -3.46367448       2.06601656       4.64346553
Si       6.02540602       8.60043390       5.53208643
Si      -2.68307235       2.13646188       3.97286365
Si       2.37285185       7.69566526      16.66075293
Si     -12.83708487       9.37352916      22.10129613
Si      -2.73214886       2.71780579       4.95761999
Si       2.26178883       9.13899034      15.26909004
Si     -13.32920071      10.96675651      21.59657927
Si       6.56777062       5.95475557       6.43861672
Si       1.33698759       5.56523839       3.34801850
Si       6.06685339       8.11608226       4.73231778
Si       4.74890597       9.77286339       3.07460014
Si       3.84215251       5.96793002      11.09018495
Si      -4.01376400       4.34336104       3.36335615
Si     -14.06289759      10.98101504      22.31066451
Si      -3.75123386       2.50884191       5.50134375
Si       2.14403371       9.60407227      16.08234843
Si      -2.89611539       7.36069584      15.09219619
Si      -8.04603369       5.71216831      14.29082108
Si       1.39927015      11.20619138      13.71598929
Si      11.47214548       2.06911802      -2.15942626
Si       7.54814551       6.16213175       5.99460659
Si       0.59558666       6.92631096       4.89166923
24
Lattice="15.327205829343278 0.8932881286822454 -7.390032787661469 -6.916172591146361 7.377859628678733 6.60901535930119 -8.372413251130027 4.53903252162189 19.620718575446407" Properties=species:S:1:pos:R:3 unique_starting_index=90 config_type=initial n_minim_iter=14 stress="0.00936150995671838 0.000739074508948384 -0.006766500952801394 0.000739074508948384 0.00012634152782952193 0.007413489763810075 -0.006766500952801394 0.007413489763810075 -0.01018377784570977" pbc="T T T"
Si       7.55849255       3.86514204       7.85142590
Si      -3.47930895       2.07140020       4.66160680
Si       6.00824245       8.59986728       5.52792822
Si      -2.69440204       2.14021618       3.98842672
Si       2.33181113       7.70305790      16.68184520
Si     -12.91395510       9.39134211      22.17497315
Si      -2.74489538       2.71952076       4.97355154
Si       2.22219617       9.15883339      15.29417590
Si     -13.38552368      10.99458455      21.66235078
Si       6.55399541       5.95763645       6.43754567
Si       1.32701486       5.56953268       3.35020033
Si       6.05257890       8.11624252       4.73311772
Si       4.73821598       9.77767868       3.07717390
Si       3.81438843       5.97381868      11.09845610
Si      -4.02840956       4.34967682       3.38713209
Si     -14.11940239      11.01196220      22.37621255
Si      -3.76629438       2.51541280       5.51525241
Si       2.10211428       9.61203465      16.11056039
Si      -2.93557465       7.37558010      15.12691285
Si      -8.08498745       5.72936180      14.33207204
Si       1.36557943      11.21748652      13.73900362
Si      11.47769916       2.06264512      -2.18502571
Si       7.53172434       6.16320782       5.99246712
Si       0.57722970       6.93159630       4.90390435
24
Lattice="15.281276677315454 0.8964789234515742 -7.40882317714382 -6.88365823174837 7.399403022577852 6.648369275714971 -8.325480016776448 4.579888012192674 19.715186715571868" Properties=species:S:1:pos:R:3 unique_starting_index=90 config_type=initial n_minim_iter=15 stress="0.0029092398198609115 0.0024687470852885166 -0.0007889190210394715 0.0024687470852885166 0.0034904207863347297 0.0058940233944347 -0.0007889190210394715 0.0058940233944347 -0.0049372909976743975" pbc="T T T"
Si       7.55587638       3.90210624       7.90015073
Si      -3.46704578       2.07933837       4.68499399
Si       6.00937427       8.63283066       5.57647410
Si      -2.68280063       2.14829280       4.01252298
Si       2.35362370       7.75376651      16.77207182
Si     -12.86305439       9.43629249      22.28481572
Si      -2.72782969       2.72914799       5.00211257
Si       2.24517528       9.21370043      15.39339992
Si     -13.31346183      11.04745233      21.77405188
Si       6.55255184       5.99121901       6.48563751
Si       1.33486418       5.59192819       3.37632118
Si       6.04764695       8.14992610       4.77622239
Si       4.74069019       9.81283732       3.11883669
Si       3.82211995       6.01381427      11.16368441
Si      -4.01358226       4.36125592       3.41478548
Si     -14.04223510      11.06948436      22.48659176
Si      -3.74738459       2.52614085       5.54052034
Si       2.12310528       9.66867171      16.20891100
Si      -2.90354494       7.41984608      15.21156043
Si      -8.04142239       5.76064008      14.40396679
Si       1.39308355      11.26944507      13.82773679
Si      11.44773426       2.07779870      -2.18092879
Si       7.52389434       6.19796705       6.04269753
Si       0.58666601       6.95644539       4.94270652
24
Lattice="15.314095915974283 0.9014080462820088 -7.46978815689782 -6.913538722666061 7.37139493292771 6.663308729440262 -8.395254762986552 4.529640305679667 19.76128229938886" Properties=species:S:1:pos:R:3 unique_starting_index=90 config_type=initial n_minim_iter=16 stress="0.0037857682339266863 0.00016402529559385133 -0.0027512355482649147 0.00016402529559385133 0.00048246110055331605 0.0010166680649934515 -0.0027512355482649147 0.0010166680649934515 -0.0034369277696742516" pbc="T T T"
Si       7.53336477       3.87704663       7.87815963
Si      -3.48758847       2.06652259       4.69787498
Si       5.99198215       8.59301292       5.54707651
Si      -2.70136134       2.13642880       4.02681739
Si       2.30062194       7.69356509      16.76996694
Si     -12.95136172       9.36403004      22.33133525
Si      -2.74725684       2.71064554       5.01259064
Si       2.19599311       9.15620355      15.39204167
Si     -13.39536886      10.97931005      21.82503564
Si       6.53360263       5.95796991       6.46099099
Si       1.32353359       5.57352209       3.36441625
Si       6.02848915       8.11496438       4.74609556
Si       4.72712878       9.78233183       3.08922330
Si       3.78545623       5.97259732      11.15410611
Si      -4.03009767       4.34742595       3.42506908
Si     -14.12628486      11.00463450      22.53893196
Si      -3.76789914       2.50753130       5.55413442
Si       2.06445403       9.60957041      16.20499651
Si      -2.95640898       7.37061145      15.22802091
Si      -8.09243956       5.71754836      14.43843083
Si       1.34781833      11.21052047      13.82127808
Si      11.46128619       2.07187242      -2.22547254
Si       7.50628419       6.16513415       6.01756219
Si       0.56665783       6.92736241       4.93270512
24
Lattice="15.272157991094032 0.9122229196692672 -7.468215395865117 -6.885761133261339 7.374458015527265 6.669780405611987 -8.35514711625779 4.5330212291247305 19.78504362305695" Properties=species:S:1:pos:R:3 unique_starting_index=90 config_type=initial n_minim_iter=17 stress="0.0010888353809109426 -0.0004884512652526758 0.0011358355849931368 -0.0004884512652526758 0.0021925413120016204 0.0006264112562588727 0.0011358355849931368 0.0006264112562588727 -0.0014621944391572505" pbc="T T T"
Si       7.52448451       3.89524850       7.89471742
Si      -3.47542921       2.07038804       4.70423186
Si       5.98888344       8.60588042       5.56146357
Si      -2.69420146       2.13889540       4.03834465
Si       2.31733605       7.70797274      16.79542709
Si     -12.89559752       9.35755873      22.34440230
Si      -2.73625591       2.71191803       5.01958901
Si       2.21222869       9.17276306      15.41597141
Si     -13.33541443      10.98542461      21.85363579
Si       6.52721096       5.96979338       6.47445475
Si       1.32988429       5.58590489       3.37281771
Si       6.02193701       8.12235411       4.76199138
Si       4.72249021       9.79449646       3.10051032
Si       3.78945102       5.98566620      11.17418503
Si      -4.01305467       4.35026763       3.43300283
Si     -14.06093840      11.01327151      22.56533382
Si      -3.75160757       2.50683237       5.55890414
Si       2.07792351       9.62351997      16.23331084
Si      -2.92892350       7.38096881      15.25111245
Si      -8.05238808       5.72053430      14.45496075
Si       1.36587623      11.22566742      13.84988014
Si      11.43478233       2.08318612      -2.22005370
Si       7.49858532       6.17786938       6.03806408
Si       0.57461093       6.93328110       4.94143536
24
Lattice="15.269856247270118 0.9221610366278875 -7.5270407607853285 -6.8940646111700365 7.3600621762148055 6.691184563298915 -8.395889274280936 4.499429199812499 19.843732056533195" Properties=species:S:1:pos:R:3 unique_starting_index=90 config_type=initial n_minim_iter=18 stress="-0.0008748833826380643 -0.0010967928577499193 0.0011034895720115868 -0.0010967928577499193 0.0003402955514449227 -0.001671312851885407 0.0011034895720115868 -0.001671312851885407 0.0021632146853274715" pbc="T T T"
Si       7.49560907       3.88110069       7.88915263
Si      -3.48512857       2.06022464       4.72348713
Si       5.96695384       8.58937891       5.54110723
Si      -2.70175581       2.12977253       4.05685141
Si       2.26848050       7.67945012      16.80987545
Si     -12.93771145       9.30686952      22.39813729
Si      -2.74643463       2.70466846       5.03730761
Si       2.17094216       9.14199441      15.42652280
Si     -13.37265364      10.94694573      21.92362080
Si       6.49783277       5.95568379       6.45817495
Si       1.32157002       5.58437135       3.36959942
Si       5.99606607       8.10649856       4.74577592
Si       4.70150449       9.77911758       3.07841554
Si       3.75250369       5.96577130      11.17840508
Si      -4.01740384       4.34311891       3.45047914
Si     -14.09608999      10.96826895      22.63929643
Si      -3.76376193       2.49839174       5.57857127
Si       2.02907959       9.59236830      16.24305878
Si      -2.96291168       7.35444455      15.28169792
Si      -8.07747483       5.69804119      14.49769835
Si       1.32448825      11.19991209      13.86148772
Si      11.42244554       2.08636027      -2.26217208
Si       7.47316066       6.16203244       6.02397513
Si       0.56044612       6.91796662       4.93770824
24
Lattice="15.266725053348706 0.9275976482489793 -7.534240914012283 -6.895304050646174 7.356542978303365 6.686654970351407 -8.407459976271266 4.486587048943234 19.831199083582767" Properties=species:S:1:pos:R:3 unique_starting_index=90 config_type=initial n_minim_iter=19 stress="-0.0007161581467007153 -0.0022698999531169696 0.001433776449913513 -0.0022698999531169696 0.001314650664728763 -0.001563186296853706 0.001433776449913513 -0.001563186296853706 0.0022328197767399883" pbc="T T T"
Si       7.48412687       3.87767007       7.87430287
Si      -3.48860259       2.05693352       4.72040127
Si       5.96122194       8.58866618       5.52589977
Si      -2.70293096       2.12318284       4.05754058
Si       2.25081835       7.66768538      16.78800935
Si     -12.94960434       9.28401503      22.37943537
Si      -2.74900797       2.70130858       5.03787808
Si       2.16049539       9.13239111      15.40303387
Si     -13.37967567      10.93471342      21.91133685
Si       6.48912736       5.95257232       6.44311505
Si       1.31977656       5.58807580       3.36305814
Si       5.98534832       8.10469558       4.72986913
Si       4.69328161       9.77741215       3.06585253
Si       3.74001058       5.96077728      11.16109334
Si      -4.01842248       4.34252818       3.45180202
Si     -14.10363332      10.95592428      22.62465250
Si      -3.76922794       2.49799031       5.57552447
Si       2.01591806       9.58062127      16.21999558
Si      -2.97175817       7.34679297      15.26735235
Si      -8.08461801       5.68894696      14.48803086
Si       1.30981620      11.19518788      13.84216345
Si      11.41483519       2.08909805      -2.27332786
Si       7.46389579       6.15834010       6.00936753
Si       0.55638162       6.91360531       4.92744934
24
Lattice="15.268987322820402 0.9468703011638745 -7.544065848546013 -6.894580789693972 7.33421508949199 6.678079408720868 -8.416208014521521 4.444879910990175 19.826025099573652" Properties=species:S:1:pos:R:3 unique_starting_index=90 config_type=initial n_minim_iter=20 stress="-0.0007663867422277997 -0.0021646647475859183 0.0011664117336007648 -0.0021646647475859183 2.235757419733356e-05 -0.001668189614175356 0.0011664117336007648 -0.001668189614175356 0.0033811245507522603" pbc="T T T"
Si       7.47903649       3.86422953       7.86284065
Si      -3.49042002       2.04543717       4.71865487
Si       5.96124732       8.57780836       5.50683026
Si      -2.70358154       2.10919933       4.05659390
Si       2.24053380       7.63263090      16.76909044
Si     -12.96003198       9.22470229      22.36648667
Si      -2.75079599       2.68702500       5.03922762
Si       2.15781230       9.09640422      15.38201990
Si     -13.38117719      10.88031483      21.89969258
Si       6.48735753       5.94028304       6.42840477
Si       1.32148088       5.58242582       3.35371111
Si       5.98476582       8.08799268       4.71202105
Si       4.69261202       9.76396168       3.04614535
Si       3.73448258       5.93988409      11.14645666
Si      -4.01640214       4.33100315       3.44924518
Si     -14.10670461      10.90098482      22.61026372
Si      -3.77282652       2.48543132       5.57397702
Si       2.00868720       9.54530016      16.19909190
Si      -2.97475129       7.31417137      15.25578767
Si      -8.08960389       5.65382219      14.48291479
Si       1.30573681      11.16211755      13.82291286
Si      11.41317398       2.09702690      -2.28368375
Si       7.46098054       6.14730209       5.99201159
Si       0.55732837       6.89653135       4.91410212
24
Lattice="15.271331027103281 0.977427802589268 -7.552354587804742 -6.892040510609161 7.316279810167411 6.662005393457882 -8.43190773561615 4.398668843464271 19.796414426895772" Properties=species:S:1:pos:R:3 unique_starting_index=90 config_type=initial n_minim_iter=21 stress="-1.2916270118891948e-05 -0.0025805849969740705 0.0008215182317392682 -0.0025805849969740705 0.0014508302547068513 -0.001925338959357016 0.0008215182317392682 -0.001925338959357016 0.00394686154854854" pbc="T T T"
Si       7.46662088       3.85715511       7.83459063
Si      -3.49240840       2.03370833       4.71235264
Si       5.96324478       8.57588171       5.47714765
Si      -2.70532990       2.09451330       4.05031596
Si       2.22178133       7.60598369      16.71974785
Si     -12.97780704       9.16146985      22.32862247
Si      -2.75501353       2.67373369       5.03520845
Si       2.14894067       9.07146378      15.33370430
Si     -13.38246227      10.82713886      21.85955117
Si       6.48247554       5.93789302       6.39896904
Si       1.32349351       5.58652879       3.33749539
Si       5.98073976       8.08511658       4.68201913
Si       4.69394037       9.76207792       3.01642312
Si       3.72372579       5.92665912      11.11135744
Si      -4.01225467       4.32070998       3.44365279
Si     -14.11255516      10.84860712      22.56666403
Si      -3.77850474       2.47324821       5.56680230
Si       1.99423976       9.51861611      16.15085457
Si      -2.98050974       7.28635827      15.22289471
Si      -8.09868060       5.61998857      14.46182490
Si       1.30100560      11.13830525      13.78255224
Si      11.41060956       2.11300237      -2.29779538
Si       7.45627324       6.14515615       5.95939681
Si       0.55940681       6.88675868       4.89124979
