24
Lattice="9.266069774648345 -0.24441057751211753 -2.5970585798666552 -4.611803885197617 7.2087109381436 2.599347831095379 -2.6712199178043603 1.5378186415938546 11.882520486811176" Properties=species:S:1:pos:R:3 unique_starting_index=90 config_type=initial n_minim_iter=1 energy=-3919.246483070583 free_energy=-3919.246483070583 pbc="T T T"
Si       5.48293673       0.98790491       6.27196202
Si      -0.15332739       2.71273549       1.39365262
Si       4.29118997       6.06417181       3.59191280
Si       0.15833399       1.53637345       3.15439194
Si       3.08832146       3.46711663      10.42724790
Si      -5.28922680       6.82589347      11.98465659
Si      -0.74902257       2.67902245       4.41944908
Si       0.65182700       5.26932627       9.08282581
Si      -4.70644692       8.36248139      10.94957564
Si       5.01111659       3.36289874       5.49360384
Si       0.38117762       4.78359204       3.64665858
Si       2.42750501       6.96958361       3.52581290
Si       4.08075394       7.59202926       1.61326465
Si       5.18080107       2.80322434       9.29475209
Si      -2.18098132       3.68085762       1.21490141
Si      -6.43374585       8.46273455      11.96155638
Si      -1.82516046       2.21062446       2.68178587
Si       2.51282071       5.33843194       9.94670178
Si       0.25710280       2.82386727       9.38461745
Si      -2.59747368       4.32081626       7.24588488
Si      -0.19106645       6.74290783       8.02404806
Si       5.53763045       0.89559565       0.28808377
Si       5.18018744       3.45041598       3.53249865
Si       0.37729227       5.84731466       5.35010681
24
Lattice="9.268935352579964 -0.23447771475324594 -2.5998389623318157 -4.607751622277439 7.221604933614509 2.5928930865262787 -2.6717661307304588 1.5248107852994044 11.891582896762934" Properties=species:S:1:pos:R:3 unique_starting_index=90 config_type=initial n_minim_iter=2 stress="0.0068516015323700375 -0.002239814978226572 0.001326230836173956 -0.002239814978226572 0.002082828313359108 -8.615157472664987e-05 0.001326230836173956 -8.615157472664987e-05 0.0034468521655749403" pbc="T T T"
Si       5.48502626       0.98702186       6.27602893
Si      -0.15155769       2.71843715       1.39156196
Si       4.29704969       6.07942930       3.58728297
Si       0.15925817       1.53697862       3.15531638
Si       3.09106144       3.46582697      10.43189517
Si      -5.28638904       6.82538358      11.98720403
Si      -0.74751439       2.68010482       4.42025955
Si       0.65574594       5.27292755       9.08438149
Si      -4.70270144       8.36785748      10.94918170
Si       5.01456616       3.36917853       5.49414152
Si       0.38472951       4.79238312       3.64365438
Si       2.43368505       6.98579894       3.51992968
Si       4.08761128       7.61396916       1.60446328
Si       5.18411429       2.80283018       9.29918277
Si      -2.17855695       3.68811241       1.21140787
Si      -6.42960242       8.46571090      11.96197616
Si      -1.82418190       2.21205437       2.68146224
Si       2.51688004       5.34225230       9.94877534
Si       0.25853445       2.82014414       9.38986784
Si      -2.59510469       4.32157678       7.24738288
Si      -0.18657755       6.75098100       8.02269770
Si       5.54021688       0.90178932       0.28683796
Si       5.18425724       3.45941265       3.53085706
Si       0.38135795       5.85682455       5.34750568
24
Lattice="9.246747670780659 -0.21975343885630477 -2.602961025822842 -4.5875811009567755 7.219908903184095 2.5878731877639147 -2.669757147204924 1.5132298056461988 11.882585192648952" Properties=species:S:1:pos:R:3 unique_starting_index=90 config_type=initial n_minim_iter=3 stress="-0.01036110052820351 0.002927965864724805 0.0017670429695628583 0.002927965864724805 0.0020229166787884513 -7.769522625128993e-05 0.0017670429695628583 -7.769522625128993e-05 -0.0027464016429567073" pbc="T T T"
Si       5.46931023       0.99091646       6.26727312
Si      -0.14880710       2.71988978       1.38873188
Si       4.29274475       6.08780069       3.57762403
Si       0.15889358       1.53675737       3.15157423
Si       3.08191970       3.46570603      10.41903631
Si      -5.27072145       6.81489349      11.97559004
Si      -0.74447395       2.67799253       4.41551418
Si       0.65686002       5.27236673       9.07269636
Si      -4.68692613       8.36061365      10.93664783
Si       5.00269047       3.37521762       5.48484169
Si       0.38823286       4.79458046       3.63634390
Si       2.43584805       6.99206010       3.51018526
Si       4.08623425       7.62539235       1.59411433
Si       5.17031766       2.80439524       9.28668170
Si      -2.16835237       3.68844831       1.20853890
Si      -6.40746370       8.45528200      11.94914196
Si      -1.81806753       2.21003987       2.67824978
Si       2.51245689       5.34250513       9.93533260
Si       0.25602889       2.81641101       9.38095021
Si      -2.58588477       4.31671031       7.24036389
Si      -0.18147582       6.75018578       8.01125953
Si       5.52793338       0.90960236       0.28256180
Si       5.17410337       3.46692393       3.52225628
Si       0.38485952       5.85844660       5.33847239
24
Lattice="9.278275567104268 -0.20755746037154021 -2.6364048520433925 -4.602021248178815 7.201804667841891 2.5936631161926216 -2.719682431933883 1.4915523503243404 11.884720962470357" Properties=species:S:1:pos:R:3 unique_starting_index=90 config_type=initial n_minim_iter=4 stress="-0.00025769135915316624 0.008670231403346173 -0.011433358047242314 0.008670231403346173 -0.001816850788894151 0.0004193114112725515 -0.011433358047242314 0.0004193114112725515 -0.004393283039596526" pbc="T T T"
Si       5.46073926       0.98658106       6.24245920
Si      -0.15529749       2.71469596       1.38631937
Si       4.29579952       6.07515184       3.55274318
Si       0.14756897       1.53261450       3.14743424
Si       3.05218087       3.45118932      10.39702516
Si      -5.32421715       6.78182677      11.98066483
Si      -0.76065972       2.66670851       4.41435322
Si       0.63109121       5.25563460       9.05758781
Si      -4.73514781       8.32933186      10.93482559
Si       4.99295307       3.36769425       5.46115957
Si       0.37898725       4.78281720       3.62339698
Si       2.43675813       6.97497382       3.48843837
Si       4.09282613       7.61499079       1.56358249
Si       5.15346304       2.78654452       9.25802185
Si      -2.17230431       3.68305910       1.20992547
Si      -6.45899617       8.42045737      11.95524319
Si      -1.83120947       2.20428633       2.67828785
Si       2.48631023       5.32088291       9.91313009
Si       0.22144702       2.80125547       9.37496578
Si      -2.61137252       4.29958503       7.24335013
Si      -0.20708532       6.72592792       7.99858408
Si       5.54383058       0.91049983       0.25887882
Si       5.17667596       3.46053955       3.49535178
Si       0.36752382       5.84189043       5.32618363
24
Lattice="9.305659814893835 -0.2418968955864575 -2.6329972204393246 -4.648912650891998 7.193610976151519 2.567664410501712 -2.7277353973862293 1.4564769374288185 11.892198414729867" Properties=species:S:1:pos:R:3 unique_starting_index=90 config_type=initial n_minim_iter=5 stress="0.0017672128241202675 -0.0015685048807961403 -0.001217965666392308 -0.0015685048807961403 7.876449321489062e-05 -0.002843554668286235 -0.001217965666392308 -0.002843554668286235 -0.002224541955291178" pbc="T T T"
Si       5.48002230       0.93821281       6.25109023
Si      -0.17776330       2.70480193       1.38298093
Si       4.28556914       6.01678933       3.54273848
Si       0.13926946       1.52265279       3.14652556
Si       3.05013515       3.39557416      10.39888337
Si      -5.37079244       6.73974525      11.96922860
Si      -0.77301123       2.64528351       4.41547394
Si       0.62007142       5.21262763       9.04840352
Si      -4.79375057       8.28922579      10.90982644
Si       4.98599850       3.31669669       5.46594866
Si       0.35790752       4.75366867       3.60190220
Si       2.41965397       6.91883312       3.46629940
Si       4.05997705       7.56415081       1.53301923
Si       5.17045411       2.70652895       9.25925174
Si      -2.18818130       3.68742658       1.19420851
Si      -6.50483801       8.38362774      11.93309233
Si      -1.84710199       2.20466228       2.66518267
Si       2.47748734       5.25305459       9.90669834
Si       0.20815708       2.76405574       9.38695795
Si      -2.62456689       4.27728968       7.24407338
Si      -0.23750784       6.67077604       7.98365738
Si       5.56554306       0.87410509       0.25518696
Si       5.17987448       3.41028786       3.48863864
Si       0.33494251       5.80188925       5.31265469
24
Lattice="9.303557116504958 -0.23832883608324804 -2.6355536654559515 -4.6415638300555635 7.191769669066807 2.5829784544394885 -2.7201796656588604 1.4715527484908055 11.925158958018118" Properties=species:S:1:pos:R:3 unique_starting_index=90 config_type=initial n_minim_iter=6 stress="0.0019880666474038798 0.0019921817988996825 0.000864218591352303 0.0019921817988996825 0.007167992673620877 0.005788071211870364 0.000864218591352303 0.005788071211870364 0.006276141481764494" pbc="T T T"
Si       5.48583820       0.95288639       6.27288584
Si      -0.17800019       2.70717404       1.39253158
Si       4.29319363       6.02214116       3.56479926
Si       0.13984594       1.52957222       3.15728533
Si       3.05866707       3.41304334      10.43498103
Si      -5.35980129       6.75193154      12.00859330
Si      -0.76892624       2.65000199       4.43296801
Si       0.63162610       5.22748530       9.08089676
Si      -4.78254011       8.30005314      10.94625988
Si       4.98963254       3.32940210       5.48978750
Si       0.36356653       4.75785493       3.61541022
Si       2.42943356       6.92056424       3.48615028
Si       4.06394451       7.56462800       1.55122145
Si       5.17838517       2.72056005       9.28768194
Si      -2.18299079       3.68897515       1.20107286
Si      -6.49246113       8.39424349      11.97544939
Si      -1.84393341       2.20804107       2.67289119
Si       2.48828739       5.26689602       9.94305992
Si       0.21297837       2.77965220       9.42035116
Si      -2.61528581       4.28563334       7.27302292
Si      -0.22927143       6.67862924       8.01432643
Si       5.57000044       0.87683497       0.25744465
Si       5.18503034       3.41779845       3.50576201
Si       0.33921727       5.80827552       5.33667930
24
Lattice="9.294163412324357 -0.22131905595749576 -2.6332530317567295 -4.6320178131101475 7.144450944481832 2.5552927482451935 -2.7074684125446105 1.412987801167759 11.945762774024534" Properties=species:S:1:pos:R:3 unique_starting_index=90 config_type=initial n_minim_iter=7 stress="-0.0011359235412021162 0.0008695568790793754 -8.726944642486971e-05 0.0008695568790793754 0.0017029797702457503 -0.0014892758669236025 -8.726944642486971e-05 -0.0014892758669236025 0.015842750123973327" pbc="T T T"
Si       5.49395971       0.92819891       6.29026227
Si      -0.18446013       2.69255121       1.38992926
Si       4.30016462       5.97621151       3.55487705
Si       0.13504980       1.51710476       3.15784938
Si       3.06994383       3.35405875      10.45340604
Si      -5.34428168       6.67061966      12.00260210
Si      -0.76517310       2.61652103       4.43769595
Si       0.65043290       5.17133732       9.08153369
Si      -4.76736459       8.21839075      10.92592623
Si       4.98882357       3.29842270       5.49659818
Si       0.36906803       4.72087373       3.59497429
Si       2.44211338       6.86432537       3.46346635
Si       4.05862144       7.51365338       1.53116798
Si       5.18553934       2.66283715       9.29006419
Si      -2.17457105       3.67203621       1.18466050
Si      -6.47831442       8.30209977      11.96793271
Si      -1.83919072       2.18881670       2.66451422
Si       2.50206230       5.19755739       9.94851270
Si       0.21401691       2.73022543       9.44103920
Si      -2.60088034       4.23516518       7.28505335
Si      -0.22305603       6.60836587       8.00223847
Si       5.57948591       0.86879479       0.24975900
Si       5.18896206       3.38683906       3.50418869
Si       0.33668670       5.75688431       5.32605063
24
Lattice="9.31577566927386 -0.2157189705926181 -2.610681777002473 -4.637986538442237 7.1420734206283685 2.5344638066181355 -2.701638601502009 1.4067965331437058 11.882787077038824" Properties=species:S:1:pos:R:3 unique_starting_index=90 config_type=initial n_minim_iter=8 stress="0.004159700696755176 0.002602307526235732 0.0040824669040372885 0.002602307526235732 0.0037461301955260397 -0.0003380839608733113 0.0040824669040372885 -0.0003380839608733113 0.00015109953724031007" pbc="T T T"
Si       5.51883257       0.93008972       6.26466978
Si      -0.18715278       2.69494749       1.38453752
Si       4.32125511       5.97485523       3.54019302
Si       0.13436753       1.52086245       3.14066667
Si       3.09303412       3.35017645      10.40609878
Si      -5.34340471       6.66706782      11.93211054
Si      -0.76312252       2.61339034       4.41651556
Si       0.66935839       5.17206190       9.03439852
Si      -4.76721739       8.21627854      10.85859260
Si       5.00824089       3.30248906       5.47206470
Si       0.37639908       4.72064543       3.56978694
Si       2.45948898       6.85948495       3.44272811
Si       4.06955417       7.50999885       1.52616382
Si       5.21121628       2.65627673       9.24039852
Si      -2.17469588       3.67430727       1.17406242
Si      -6.48060720       8.29601586      11.89940978
Si      -1.84087874       2.18878528       2.64703332
Si       2.52400583       5.19335337       9.89972628
Si       0.22072186       2.72887353       9.39842509
Si      -2.59668312       4.23203573       7.25331190
Si      -0.21461292       6.60346088       7.95650239
Si       5.60317186       0.86800652       0.24785187
Si       5.20975557       3.38664077       3.49252291
Si       0.34001542       5.75445900       5.29680842
24
Lattice="9.341703229368386 -0.2589835828907296 -2.664776296491639 -4.689772508881707 7.169082586209425 2.5674286529484402 -2.77932312163466 1.4289838604374334 11.903317063265952" Properties=species:S:1:pos:R:3 unique_starting_index=90 config_type=initial n_minim_iter=9 stress="-0.002777029451093074 -0.007266736478419677 -0.004489854966516665 -0.007266736478419677 0.007156393290255512 -0.0006346375816684505 -0.004489854966516665 -0.0006346375816684505 0.0012041939365897032" pbc="T T T"
Si       5.48992896       0.91302971       6.23613309
Si      -0.21447779       2.70493569       1.39190449
Si       4.28724512       5.95772757       3.52380372
Si       0.09836356       1.53257488       3.13992369
Si       3.03159522       3.34400224      10.39947027
Si      -5.44931164       6.71276868      11.96612742
Si      -0.80736096       2.61932882       4.42879132
Si       0.60629477       5.18525803       9.03841888
Si      -4.88320881       8.26137724      10.89292243
Si       4.96835982       3.29452914       5.44567837
Si       0.33614687       4.72506161       3.56174628
Si       2.41702944       6.84641659       3.42963431
Si       4.01953739       7.48892097       1.51157345
Si       5.15352714       2.62996628       9.20333838
Si      -2.19832760       3.69055864       1.18905936
Si      -6.59126576       8.34212999      11.94749622
Si      -1.87280968       2.20094310       2.66396297
Si       2.45395903       5.19211131       9.89415150
Si       0.14399979       2.74006866       9.41278027
Si      -2.66278496       4.25151415       7.29401137
Si      -0.29507564       6.61305552       7.95968179
Si       5.62264703       0.83381398       0.20750056
Si       5.18561466       3.36596669       3.47282827
Si       0.27180060       5.75903623       5.30006161
24
Lattice="9.435667283509897 -0.2225563193799508 -2.7004588110364227 -4.713563915634925 7.081630132601833 2.592234760138386 -2.8266494904892423 1.4038487917557572 11.975164568094046" Properties=species:S:1:pos:R:3 unique_starting_index=90 config_type=initial n_minim_iter=10 stress="0.009894102832179574 0.00016218222375719978 0.0012317849848572015 0.00016218222375719978 -0.00040665738725470264 0.0006219590455623098 0.0012317849848572015 0.0006219590455623098 0.006952031434474075" pbc="T T T"
Si       5.54020150       0.92498004       6.25713532
Si      -0.22176296       2.68773979       1.40593210
Si       4.35706054       5.90867733       3.53665422
Si       0.07859349       1.53078921       3.15404439
Si       3.07085998       3.31648926      10.45382335
Si      -5.50471768       6.64008687      12.03463942
Si      -0.82651333       2.58588361       4.46176792
Si       0.62763201       5.14583267       9.08580708
Si      -4.94662686       8.18154836      10.96368015
Si       5.01951041       3.29192510       5.46162581
Si       0.35168738       4.68093758       3.56624978
Si       2.46723286       6.77258227       3.43398848
Si       4.06173581       7.41782613       1.51257179
Si       5.19362397       2.60112563       9.22282391
Si      -2.20216481       3.65125855       1.19984872
Si      -6.64108362       8.24042279      12.02682063
Si      -1.89691244       2.17228607       2.69041043
Si       2.48913950       5.14868716       9.94538164
Si       0.11655266       2.71647045       9.48026668
Si      -2.69496812       4.19853849       7.37503639
Si      -0.29646810       6.54363182       7.99473497
Si       5.71165077       0.82528461       0.18453111
Si       5.25020249       3.34693646       3.48986968
Si       0.26407171       5.69857934       5.32278091
24
Lattice="9.549489908503961 -0.19030564237731318 -2.759109455401181 -4.7555154788359 6.996040628117794 2.6219176137957105 -2.909879632207147 1.3706782009752474 12.047653497726984" Properties=species:S:1:pos:R:3 unique_starting_index=90 config_type=initial n_minim_iter=11 stress="0.00514326990155012 -0.003341450380453328 -0.0029318624302831714 -0.003341450380453328 -0.007641240796776555 -0.005453067241380288 -0.0029318624302831714 -0.005453067241380288 0.008535281883555396" pbc="T T T"
Si       5.58687757       0.92231146       6.25530664
Si      -0.26107625       2.67432601       1.42911244
Si       4.43182193       5.85772918       3.53253460
Si       0.03243035       1.53324442       3.16596458
Si       3.11682304       3.27435737      10.48508112
Si      -5.61160841       6.55962802      12.10354358
Si      -0.87436979       2.54516205       4.49795867
Si       0.63776997       5.10631312       9.12108769
Si      -5.06460326       8.10877900      11.02326451
Si       5.06726236       3.29153326       5.45949298
Si       0.35611499       4.63503039       3.56487265
Si       2.52078945       6.67951429       3.41957068
Si       4.07794166       7.34477245       1.49076026
Si       5.20873868       2.54358712       9.21271910
Si      -2.20500972       3.61679563       1.21079932
Si      -6.74977171       8.14206494      12.11647297
Si      -1.93049524       2.14659381       2.71862912
Si       2.51870503       5.10686999       9.97403859
Si       0.04930158       2.70036513       9.55995450
Si      -2.77854341       4.13488995       7.47921057
Si      -0.32117107       6.47283960       8.01247290
Si       5.83702635       0.78421769       0.14554715
Si       5.33587138       3.32214506       3.50662258
Si       0.22134764       5.62601830       5.31892682
24
Lattice="9.748193035518575 -0.18933595028939743 -2.852067944246253 -4.850437195581255 6.980555035707934 2.727904696179476 -3.0673993100080543 1.4551475292904947 12.106811256685223" Properties=species:S:1:pos:R:3 unique_starting_index=90 config_type=initial n_minim_iter=12 stress="0.018954812188547814 -0.005057487248894294 0.0011338807965967758 -0.005057487248894294 0.0017743743279979688 0.001417382346522847 0.0011338807965967758 0.001417382346522847 0.011412831170493845" pbc="T T T"
Si       5.65021160       0.96232482       6.20539632
Si      -0.35247028       2.68867342       1.49048821
Si       4.53662791       5.88791001       3.55138057
Si      -0.03930753       1.57594511       3.18387889
Si       3.18538988       3.32984075      10.51138440
Si      -5.81233930       6.63241768      12.20978568
Si      -0.97123322       2.55601333       4.54724536
Si       0.64102447       5.19164011       9.16887483
Si      -5.30568870       8.21876203      11.15727126
Si       5.11724118       3.36065188       5.47345875
Si       0.33932101       4.63346050       3.59372708
Si       2.60035596       6.63573525       3.44559465
Si       4.09370222       7.33762110       1.51698286
Si       5.20210446       2.57548432       9.16353375
Si      -2.22598059       3.61714358       1.25701224
Si      -6.97558321       8.21805122      12.26596243
Si      -1.99328239       2.16815782       2.76513084
Si       2.51678321       5.18723276       9.98991635
Si      -0.07068262       2.79231716       9.63968460
Si      -2.91591671       4.17271333       7.63525161
Si      -0.36630373       6.51950296       8.06428391
Si       6.04013401       0.72743074       0.06594273
Si       5.46085548       3.33871722       3.51124355
Si       0.13434660       5.62968800       5.33268109
24
Lattice="9.998652500140762 -0.18625213306832678 -2.9271580218325313 -4.964004917431915 6.989776983735772 2.83319475050007 -3.231047101418755 1.5662508335349872 12.11182564790296" Properties=species:S:1:pos:R:3 unique_starting_index=90 config_type=initial n_minim_iter=13 stress="0.035713868511093316 -0.0020455959334831934 -0.0004115115570770071 -0.0020455959334831934 0.011801612943906442 0.0011446378227371113 -0.0004115115570770071 0.0011446378227371113 0.027421123778017597" pbc="T T T"
Si       5.75031705       1.01282835       6.12122645
Si      -0.47605853       2.70759602       1.57234943
Si       4.69419857       5.95921415       3.57309061
Si      -0.13295277       1.63908610       3.17981995
Si       3.31278134       3.44170327      10.48715498
Si      -6.02709259       6.74815340      12.26287117
Si      -1.08830286       2.57791388       4.57302771
Si       0.67528022       5.31249611       9.18237193
Si      -5.57833608       8.40158534      11.26570497
Si       5.19768433       3.46187897       5.47804731
Si       0.32290917       4.63149406       3.60947482
Si       2.72647013       6.60460054       3.47159265
Si       4.12347972       7.37273596       1.56052648
Si       5.21415671       2.63558580       9.07141818
Si      -2.25679471       3.63855402       1.29579160
Si      -7.23807924       8.34782972      12.37590249
Si      -2.06910179       2.19834951       2.81435167
Si       2.57500705       5.28032655       9.97330222
Si      -0.18447708       2.92307005       9.68265119
Si      -3.06268608       4.24384912       7.77922002
Si      -0.38805717       6.61369790       8.08360549
Si       6.31839631       0.65825953      -0.01733066
Si       5.63813691       3.37346874       3.52072470
Si       0.03999590       5.66067370       5.32722130
24
Lattice="10.102408728830435 -0.1995781071906103 -2.9431000244389702 -5.01170834209099 7.018893355676778 2.897446544638068 -3.282731452514911 1.6652072662575486 12.105658288474903" Properties=species:S:1:pos:R:3 unique_starting_index=90 config_type=initial n_minim_iter=14 stress="0.028468852801988315 -0.002545854095000623 -0.01435904259111643 -0.002545854095000623 0.02054466089691259 -0.0020679369042369768 -0.01435904259111643 -0.0020679369042369768 0.013002538151202662" pbc="T T T"
Si       5.80432804       1.04579946       6.08050716
Si      -0.55646500       2.71456620       1.63192004
Si       4.78173746       6.02669035       3.61876929
Si      -0.20083671       1.69080457       3.18017496
Si       3.41700172       3.53813982      10.48438657
Si      -6.10493737       6.86782982      12.28430223
Si      -1.15677281       2.60157146       4.57583782
Si       0.72045180       5.41577519       9.19670049
Si      -5.69711867       8.56965594      11.33540965
Si       5.23569227       3.53555017       5.50140961
Si       0.30888435       4.63293730       3.63414807
Si       2.81316850       6.59212724       3.51490280
Si       4.11592646       7.41991574       1.61102241
Si       5.21408398       2.69613400       9.03499908
Si      -2.26184402       3.66590007       1.32628525
Si      -7.35477367       8.47573391      12.44296274
Si      -2.10470828       2.22131888       2.85375749
Si       2.61408037       5.36229135       9.96944810
Si      -0.21863367       3.03829489       9.71017915
Si      -3.11732150       4.32119593       7.86517641
Si      -0.36545301       6.70058444       8.10923772
Si       6.49212511       0.60899245      -0.05013856
Si       5.73571290       3.40180491       3.55959928
Si      -0.00920818       5.69915830       5.32485962
24
Lattice="10.160192602679494 -0.19417607100008463 -2.913377734032497 -5.013286532207921 7.032272633382406 2.9484249668174316 -3.250002244805035 1.7636060091992933 12.133417303002451" Properties=species:S:1:pos:R:3 unique_starting_index=90 config_type=initial n_minim_iter=15 stress="0.003873177616092785 -0.01187622681552678 -0.016539972818860306 -0.01187622681552678 0.009212127048580425 -0.00312454175015309 -0.016539972818860306 -0.00312454175015309 0.006377756114503193" pbc="T T T"
Si       5.88092521       1.09621361       6.10215094
Si      -0.62861193       2.71498211       1.68855070
Si       4.89604980       6.10173700       3.71468845
Si      -0.23474827       1.73954061       3.19714220
Si       3.56075894       3.64596299      10.54519711
Si      -6.08246196       6.97617431      12.32816580
Si      -1.18440413       2.62383312       4.59897452
Si       0.83497610       5.51219876       9.26229680
Si      -5.70443100       8.72732401      11.42871902
Si       5.29201315       3.61620768       5.57631813
Si       0.31982334       4.63012488       3.68608458
Si       2.92450981       6.58306127       3.60030374
Si       4.12233723       7.47989273       1.69295298
Si       5.26176891       2.77578280       9.07418702
Si      -2.25110057       3.68171157       1.35410314
Si      -7.36453404       8.58505272      12.52699920
Si      -2.12916369       2.22680590       2.89470400
Si       2.71913124       5.44412547      10.02117084
Si      -0.17681315       3.15594863       9.76959044
Si      -3.10196997       4.39662201       7.95448674
Si      -0.28089991       6.78390311       8.16743226
Si       6.65813149       0.58689049      -0.04857997
Si       5.84769004       3.44236401       3.65681212
Si      -0.00776851       5.73205851       5.34144549
24
Lattice="10.166034352585276 -0.17900160877480428 -2.801932479690811 -4.961927978057213 7.083297533440142 2.98357574648477 -3.105335085031866 1.9097287918555046 12.122944128694764" Properties=species:S:1:pos:R:3 unique_starting_index=90 config_type=initial n_minim_iter=16 stress="0.005374813017631193 -0.003876475434883196 -0.006608882344641117 -0.003876475434883196 0.011079216494424175 -0.006740495373584533 -0.006608882344641117 -0.006740495373584533 0.005469076382855178" pbc="T T T"
Si       5.98194596       1.18761230       6.16356722
Si      -0.66879420       2.70979086       1.73563383
Si       5.04407423       6.23977450       3.87327241
Si      -0.21455748       1.80101562       3.21881248
Si       3.74669332       3.83247088      10.62314949
Si      -5.93180678       7.15672910      12.33782969
Si      -1.15611639       2.67496855       4.60336179
Si       1.01849578       5.65823868       9.34132581
Si      -5.55556229       8.95741963      11.50950982
Si       5.38006705       3.73683289       5.68950029
Si       0.36016253       4.65604947       3.75989676
Si       3.05697827       6.64195035       3.74938783
Si       4.16628194       7.61525875       1.83715000
Si       5.37944936       2.94372962       9.15961095
Si      -2.25091103       3.71654744       1.38008671
Si      -7.23687228       8.76028066      12.56743845
Si      -2.08337994       2.25965104       2.92723304
Si       2.89714125       5.59045502      10.08896915
Si      -0.01608358       3.31844437       9.79198187
Si      -2.99363428       4.52303734       7.98240642
Si      -0.09870930       6.93276983       8.24724707
Si       6.75514881       0.57589750       0.02192504
Si       5.97587710       3.53334674       3.81078117
Si       0.07452413       5.82066838       5.37247611
24
Lattice="10.21429202643969 -0.1860343462257987 -2.7288961219644747 -4.948498140217071 7.157352844858915 3.056637985296695 -3.022206045079241 2.0945865915553625 12.121775190985788" Properties=species:S:1:pos:R:3 unique_starting_index=90 config_type=initial n_minim_iter=17 stress="0.00908073308463577 -0.006637209685702162 -0.0011845556752572003 -0.006637209685702162 0.009419660183134216 0.0029453791323792284 -0.0011845556752572003 0.0029453791323792284 0.01401879290323027" pbc="T T T"
Si       6.08176978       1.29811845       6.20573329
Si      -0.74444506       2.69002502       1.78829055
Si       5.19307210       6.39233802       4.05237271
Si      -0.21595035       1.89224249       3.23622946
Si       3.88484702       4.03714809      10.73134670
Si      -5.88439584       7.40334768      12.38494181
Si      -1.16482705       2.72978478       4.61402612
Si       1.13425543       5.82609775       9.41261774
Si      -5.49311047       9.26135206      11.64783745
Si       5.43370575       3.87992249       5.79120379
Si       0.38297185       4.68584064       3.82230889
Si       3.19826545       6.67791407       3.93120220
Si       4.18876935       7.77322217       2.01441398
Si       5.49347923       3.12647084       9.18059263
Si      -2.27255724       3.80516863       1.42911700
Si      -7.20044741       8.97595080      12.64509552
Si      -2.08510004       2.28424867       2.95360838
Si       3.04344862       5.77089974      10.13759853
Si       0.12197101       3.53050419       9.80840749
Si      -2.93217314       4.69015874       8.02431796
Si       0.06711547       7.10734599       8.33980268
Si       6.89811770       0.52974559       0.06760224
Si       6.13308542       3.62755289       3.96530316
Si       0.11596470       5.92315918       5.40008256
24
Lattice="10.127522931154578 -0.18585104408090675 -2.5950093544475723 -4.874379933444204 7.169590338812905 3.031336977599014 -2.836426287720535 2.1633088807216874 12.07621528723126" Properties=species:S:1:pos:R:3 unique_starting_index=90 config_type=initial n_minim_iter=18 stress="0.0004885346938337911 -0.007520998376331791 0.015444433140108127 -0.007520998376331791 0.002228902711980233 -0.0019205882953551596 0.015444433140108127 -0.0019205882953551596 0.004884825404391366" pbc="T T T"
Si       6.12839322       1.35910670       6.28339481
Si      -0.76164783       2.61662212       1.77799803
Si       5.25598348       6.45836202       4.19432356
Si      -0.15739445       1.93180135       3.22279897
Si       3.96928211       4.12035448      10.83285564
Si      -5.71287521       7.52375796      12.32683590
Si      -1.10579099       2.73167495       4.58503564
Si       1.25198111       5.84050173       9.43812345
Si      -5.27743120       9.36492993      11.64954062
Si       5.46574897       3.93496803       5.86754457
Si       0.44505731       4.68193423       3.83721025
Si       3.27536051       6.63751547       4.08886129
Si       4.19031519       7.87076500       2.12729321
Si       5.63309647       3.23410538       9.26445992
Si      -2.27614934       3.86827287       1.43641336
Si      -7.02110068       9.01713801      12.58405751
Si      -2.04452058       2.24834963       2.92690899
Si       3.15264255       5.80903369      10.14410176
Si       0.34685752       3.63194662       9.77093030
Si      -2.79351921       4.76102897       7.96029458
Si       0.25475200       7.17324570       8.35910749
Si       6.87552226       0.49104406       0.17114789
Si       6.20501760       3.65250697       4.08650657
Si       0.20889795       5.94207739       5.38649257
24
Lattice="10.22349624398297 -0.10934889347045378 -2.6212551404624476 -4.865408944055265 7.080698319443993 3.0560580593439255 -2.866230108776698 2.137614356009415 12.145794468484862" Properties=species:S:1:pos:R:3 unique_starting_index=90 config_type=initial n_minim_iter=19 stress="0.03369918077610579 0.004699813981159678 0.017650201369424898 0.004699813981159678 0.008702352223062725 -0.004876406428631632 0.017650201369424898 -0.004876406428631632 0.012414362279366778" pbc="T T T"
Si       6.18233808       1.43067680       6.32101565
Si      -0.82318518       2.53504463       1.78871542
Si       5.40140213       6.47090771       4.24872225
Si      -0.16369530       1.97355570       3.23417438
Si       3.99350513       4.15146659      10.94253970
Si      -5.78030404       7.46249052      12.38648347
Si      -1.11749037       2.67341657       4.59654662
Si       1.31010876       5.80765931       9.48293008
Si      -5.29930699       9.30117501      11.74988123
Si       5.54502209       3.98658580       5.86522592
Si       0.49675937       4.63163927       3.82290562
Si       3.37164485       6.52220975       4.16691316
Si       4.26025108       7.86074156       2.14463861
Si       5.73678937       3.28094579       9.29699091
Si      -2.29924484       3.86722218       1.45522916
Si      -7.06275474       8.90893389      12.65847077
Si      -2.04204615       2.17378661       2.95541876
Si       3.22825157       5.81034423      10.14995567
Si       0.40910112       3.64640533       9.81357190
Si      -2.80182819       4.73652280       8.02300589
Si       0.34017270       7.13157667       8.38184915
Si       6.98993352       0.48448539       0.15230055
Si       6.32278931       3.66355461       4.14274517
Si       0.21837826       5.86899941       5.37637134
24
Lattice="10.251739056356671 -0.07960813855564054 -2.6587593772797637 -4.861221312549028 7.051206911588011 3.0789128618547474 -2.9028040900428125 2.124660342693894 12.199555586758335" Properties=species:S:1:pos:R:3 unique_starting_index=90 config_type=initial n_minim_iter=20 stress="0.0389811768477042 -0.004377287467963399 0.018527018654249237 -0.004377287467963399 0.02706710123481581 -0.0041607985459286515 0.018527018654249237 -0.0041607985459286515 0.01937138852840615" pbc="T T T"
Si       6.17118419       1.48037888       6.34603758
Si      -0.84701657       2.47873714       1.78571176
Si       5.40554067       6.47690300       4.26576857
Si      -0.15114508       2.00470392       3.24267097
Si       3.93162765       4.17569224      11.01583284
Si      -5.83924503       7.43988819      12.44095612
Si      -1.11316744       2.64230742       4.60668615
Si       1.28339210       5.78856556       9.50745920
Si      -5.32194651       9.26670654      11.82982355
Si       5.56659828       4.01533880       5.83849928
Si       0.52443973       4.61714336       3.81008555
Si       3.40136111       6.46281817       4.22056148
Si       4.29825533       7.85847955       2.14457711
Si       5.77574828       3.32028900       9.32484421
Si      -2.33066449       3.87618897       1.46827518
Si      -7.10153412       8.86920658      12.71552613
Si      -2.03822743       2.12525752       2.97960422
Si       3.22393561       5.82288283      10.15150078
Si       0.43456848       3.64337127       9.82580436
Si      -2.81804833       4.73586555       8.04766712
Si       0.35861616       7.11707779       8.39669030
Si       6.99843208       0.48782366       0.13805814
Si       6.34074848       3.66756891       4.16211036
Si       0.21641608       5.83356693       5.37756434
24
Lattice="10.258768465189016 -0.013697933085680482 -2.7251275812779747 -4.826200387150681 6.955568097017821 3.1088259950398247 -2.956823062854482 2.0758407909289556 12.283276894864578" Properties=species:S:1:pos:R:3 unique_starting_index=90 config_type=initial n_minim_iter=21 stress="0.018698338628335396 -0.002357968775969834 0.012423908469183042 -0.002357968775969834 0.006412102361097765 0.004414767154844664 0.012423908469183042 0.004414767154844664 0.01950352238789975" pbc="T T T"
Si       6.12897657       1.53242058       6.36476093
Si      -0.89131575       2.41342454       1.79197635
Si       5.41328878       6.45276227       4.26726120
Si      -0.14200460       2.01937183       3.25328005
Si       3.87130573       4.17899444      11.09954809
Si      -5.87652658       7.34166739      12.51740977
Si      -1.11005346       2.58155483       4.62611254
Si       1.25796128       5.72863413       9.54461515
Si      -5.33712247       9.14067392      11.92981109
Si       5.57672157       4.03655740       5.80569816
Si       0.55336537       4.56254881       3.78750277
Si       3.42506349       6.36260283       4.26222769
Si       4.34414291       7.82013577       2.13341954
Si       5.78020074       3.33616228       9.34265197
Si      -2.32309639       3.82197719       1.48797123
Si      -7.12487198       8.74264477      12.80437963
Si      -2.02682092       2.05560970       3.01585258
Si       3.19163510       5.79168367      10.15648384
Si       0.43905212       3.61308681       9.86048413
Si      -2.83640071       4.68781926       8.09942184
Si       0.37599681       7.05352469       8.41197161
Si       6.99972154       0.50135997       0.10598449
Si       6.34730451       3.66632364       4.18141517
Si       0.21481168       5.75412525       5.38070080
