12
Lattice="5.890392579815479 1.5833204310173377 -1.7028720146596967 0.4778439580106397 8.015919842634647 0.4365903789812395 -2.9068204927506973 -2.2876177175351873 11.368473691146479" Properties=species:S:1:pos:R:3 unique_starting_index=44 config_type=initial n_minim_iter=1 energy=-2129.585121784492 free_energy=-2129.585121784492 pbc="T T T"
Si      -1.44505381       1.71909032       9.31428584
Si      -0.03022238       5.14227972       3.80804766
Si      -1.62232091       4.35130740      10.05743073
Si       3.22008617       3.38774604       7.44841493
Si       3.98949764       6.00038757       7.45208827
Si       4.02268864       3.35919755       6.68371596
Si       6.43397673       5.60287729      -2.92527238
Si       1.63499532       3.92283264      -1.05147256
Si      -2.21457946      -0.94314158       9.91947197
Si       5.59283460       4.61698072       2.03404920
Si      -2.52962003      -0.86877361       8.89886426
Si      -1.49240747      -0.95165556       9.13429539
12
Lattice="5.8900818325008295 1.583509077379 -1.7027623473911475 0.4782040373895084 8.015303962084692 0.43643435291741556 -2.9066669616199174 -2.287769251694274 11.36785470519347" Properties=species:S:1:pos:R:3 unique_starting_index=44 config_type=initial n_minim_iter=2 stress="-0.0003775320710594865 -0.00022023982017512254 -0.00010352139082835697 -0.00022023982017512254 -0.0040395536734148295 -0.000178205906432866 -0.00010352139082835697 -0.000178205906432866 -0.0006419415509734274" pbc="T T T"
Si      -1.44478122       1.71878406       9.31371868
Si      -0.02996263       5.14185122       3.80775583
Si      -1.62203903       4.35072651      10.05670285
Si       3.22013421       3.38742589       7.44790122
Si       3.98954609       5.99997708       7.45172054
Si       4.02267206       3.35905144       6.68346488
Si       6.43387956       5.60270670      -2.92514011
Si       1.63501527       3.92267791      -1.05160529
Si      -2.21436935      -0.94332497       9.91890303
Si       5.59262922       4.61684948       2.03392261
Si      -2.52939308      -0.86896097       8.89834987
Si      -1.49224879      -0.95185901       9.13377088
12
Lattice="5.8897291192683445 1.5841745505446394 -1.702604981471167 0.4788561099286458 8.016024079184541 0.4362855438773526 -2.9064539690171642 -2.288401742630048 11.367244699312542" Properties=species:S:1:pos:R:3 unique_starting_index=44 config_type=initial n_minim_iter=3 stress="-0.0008604458434199791 0.00041245216823203236 -0.00018319165270534767 0.00041245216823203236 0.0005257456700757492 2.4029658807171807e-05 -0.00018319165270534767 2.4029658807171807e-05 -0.00149297920514511" pbc="T T T"
Si      -1.44431435       1.71874472       9.31316227
Si      -0.02949206       5.14229912       3.80748287
Si      -1.62155382       4.35080966      10.05594554
Si       3.22035076       3.38772658       7.44739867
Si       3.98979311       6.00069866       7.45149160
Si       4.02280207       3.35963339       6.68336885
Si       6.43391014       5.60363350      -2.92494511
Si       1.63511048       3.92326808      -1.05181407
Si      -2.21404006      -0.94373171       9.91833767
Si       5.59246814       4.61768108       2.03387258
Si      -2.52904996      -0.86937097       8.89782930
Si      -1.49198582      -0.95231138       9.13324731
12
Lattice="5.890704764785591 1.5841450948634928 -1.7029082894685938 0.4789095293882019 8.015856135069619 0.4362568169132014 -2.9059005224613066 -2.2887332419942275 11.372501665030978" Properties=species:S:1:pos:R:3 unique_starting_index=44 config_type=initial n_minim_iter=4 stress="0.0005901583146619926 0.0004829779085226838 -7.463603264136988e-05 0.0004829779085226838 -1.0423012050038017e-05 -0.00016692147831777221 -7.463603264136988e-05 -0.00016692147831777221 0.0002452315303149966" pbc="T T T"
Si      -1.44354117       1.71853334       9.31738901
Si      -0.02926410       5.14225839       3.80916436
Si      -1.62131719       4.35041012      10.06031405
Si       3.22178551       3.38709268       7.45097640
Si       3.99101107       6.00026833       7.45557522
Si       4.02431200       3.35943763       6.68727190
Si       6.43502368       5.60327628      -2.92587201
Si       1.63514596       3.92342038      -1.05268767
Si      -2.21329733      -0.94397643       9.92287681
Si       5.59333141       4.61745093       2.03534416
Si      -2.52847856      -0.86957525       8.90181340
Si      -1.49116874      -0.95283907       9.13743745
12
Lattice="5.889124204626454 1.5825603114794644 -1.7025358805223005 0.47680420072418167 8.016001205912065 0.4369172592788619 -2.9036961573710243 -2.2872957130111313 11.374150139043882" Properties=species:S:1:pos:R:3 unique_starting_index=44 config_type=initial n_minim_iter=5 stress="-0.00045288902806052173 -0.000370533716173957 0.0001982498506595862 -0.000370533716173957 0.0001066965507979243 0.00010197910118648684 0.0001982498506595862 0.00010197910118648684 0.00022306542248963564" pbc="T T T"
Si      -1.44263854       1.71954023       9.31901173
Si      -0.03026868       5.14287212       3.81023507
Si      -1.62144666       4.35161028      10.06231629
Si       3.22120122       3.38672018       7.45297259
Si       3.98927476       5.99988991       7.45786474
Si       4.02354433       3.35904383       6.68938555
Si       6.43222661       5.60146824      -2.92555154
Si       1.63371107       3.92318407      -1.05273556
Si      -2.21152084      -0.94274358       9.92421979
Si       5.59098885       4.61626766       2.03669693
Si      -2.52668723      -0.86834590       8.90320447
Si      -1.48964366      -0.95199846       9.13885592
12
Lattice="5.8899410085897195 1.5822508174211043 -1.7028105627841772 0.4764564784644518 8.016015254002998 0.4370256176093165 -2.9041769039104155 -2.287065548134316 11.375513515362677" Properties=species:S:1:pos:R:3 unique_starting_index=44 config_type=initial n_minim_iter=6 stress="0.0005885456509612054 -0.00020239157770640548 -0.0002989753584902425 -0.00020239157770640548 6.90722576320856e-05 9.171633808087035e-05 -0.0002989753584902425 9.171633808087035e-05 -0.00023327027543859798" pbc="T T T"
Si      -1.44275090       1.71965833       9.32003979
Si      -0.03067035       5.14328968       3.81077515
Si      -1.62242509       4.35175245      10.06365319
Si       3.22151594       3.38637318       7.45420826
Si       3.98909085       5.99972784       7.45885474
Si       4.02412211       3.35908345       6.69042987
Si       6.43281267       5.60094051      -2.92635767
Si       1.63382095       3.92333414      -1.05320699
Si      -2.21171163      -0.94268019       9.92498274
Si       5.59082055       4.61599416       2.03711462
Si      -2.52671797      -0.86832029       8.90448593
Si      -1.48971907      -0.95172486       9.13988390
12
Lattice="5.889117210484083 1.5826297766253516 -1.7025286599017897 0.4768914170459593 8.015999187388335 0.4368901903148453 -2.902841928946257 -2.28756517493562 11.376887624722164" Properties=species:S:1:pos:R:3 unique_starting_index=44 config_type=initial n_minim_iter=7 stress="-5.666404631194186e-05 0.00015845798747251606 0.0001038804403057366 0.00015845798747251606 2.8739340585382546e-05 -6.448594163101119e-05 0.0001038804403057366 -6.448594163101119e-05 0.00020569782951458332" pbc="T T T"
Si      -1.44144252       1.71930350       9.32110800
Si      -0.03002778       5.14331149       3.81116503
Si      -1.62107208       4.35132090      10.06476906
Si       3.22204280       3.38622463       7.45555471
Si       3.98958246       5.99968413       7.46013071
Si       4.02449004       3.35915526       6.69165992
Si       6.43199223       5.60129450      -2.92642525
Si       1.63376720       3.92350550      -1.05334303
Si      -2.21047716      -0.94318416       9.92606447
Si       5.59024777       4.61622565       2.03789493
Si      -2.52548438      -0.86882406       8.90556480
Si      -1.48859564      -0.95197943       9.14101651
12
Lattice="5.888672134352371 1.5816462383052963 -1.7024629409352479 0.4756281613605165 8.016024640754663 0.4372819860111193 -2.9023145633665886 -2.2866010617319064 11.377088491245402" Properties=species:S:1:pos:R:3 unique_starting_index=44 config_type=initial n_minim_iter=8 stress="4.337218170358869e-06 -5.649365884612972e-05 2.7666058209923077e-05 -5.649365884612972e-05 1.3262856447500882e-05 1.0586270034302776e-05 2.7666058209923077e-05 1.0586270034302776e-05 9.953162436314275e-05" pbc="T T T"
Si      -1.44128936       1.72004291       9.32135574
Si      -0.03079872       5.14411472       3.81155597
Si      -1.62157902       4.35204410      10.06490951
Si       3.22147247       3.38595502       7.45605612
Si       3.98880425       5.99938277       7.46089997
Si       4.02390147       3.35890187       6.69193083
Si       6.43083626       5.60007453      -2.92631345
Si       1.63317120       3.92325386      -1.05309621
Si      -2.21018741      -0.94258396       9.92621177
Si       5.58821816       4.61549052       2.03856230
Si      -2.52516763      -0.86823022       8.90579957
Si      -1.48787829      -0.95116728       9.14109540
12
Lattice="5.888094562597064 1.5789472988893072 -1.702481318346783 0.47219740975993063 8.016088595086128 0.43834564846270624 -2.9024267982082654 -2.283739287666611 11.374872166224518" Properties=species:S:1:pos:R:3 unique_starting_index=44 config_type=initial n_minim_iter=9 stress="-0.00018344289735811798 -0.00013490722512162458 -1.902568186217075e-06 -0.00013490722512162458 -9.391372417279806e-05 4.6295362373018985e-05 -1.902568186217075e-06 4.6295362373018985e-05 -0.00015379982728287348" pbc="T T T"
Si      -1.44187109       1.72235147       9.31968214
Si      -0.03318276       5.14785293       3.81177262
Si      -1.62294674       4.35397107      10.06381057
Si       3.21948130       3.38485985       7.45446463
Si       3.98665711       5.99865845       7.45912874
Si       4.02167064       3.35819304       6.69087258
Si       6.42901619       5.59610369      -2.92549793
Si       1.63144721       3.92242538      -1.05251249
Si      -2.21038017      -0.94074355       9.92408290
Si       5.57989083       4.61360789       2.04020396
Si      -2.52519150      -0.86642969       8.90421784
Si      -1.48714105      -0.94871411       9.13902519
12
Lattice="5.888353232986994 1.577966239079161 -1.7026326508314336 0.4709592016455868 8.016183043292116 0.4387347398932245 -2.903275205081244 -2.282619015599262 11.373112984140429" Properties=species:S:1:pos:R:3 unique_starting_index=44 config_type=initial n_minim_iter=10 stress="-0.00022013997056746296 -0.00017002163704413542 -1.4809822217031117e-05 -0.00017002163704413542 -0.00018789088929948758 5.540353833791475e-05 -1.4809822217031117e-05 5.540353833791475e-05 -0.00021937439847563646" pbc="T T T"
Si      -1.44237949       1.72325518       9.31817677
Si      -0.03414150       5.15090374       3.81161407
Si      -1.62363022       4.35477133      10.06218264
Si       3.21888935       3.38437819       7.45292009
Si       3.98632714       5.99845526       7.45765671
Si       4.02069684       3.35794223       6.68926494
Si       6.42925247       5.59450652      -2.92534867
Si       1.63115392       3.92201393      -1.05191556
Si      -2.21024968      -0.94035075       9.92230489
Si       5.57384344       4.61313192       2.04135919
Si      -2.52503958      -0.86604195       8.90250927
Si      -1.48815977      -0.94813973       9.13765336
12
Lattice="5.888616998054184 1.5783450707611169 -1.702686465584387 0.47144650094204155 8.016191745805536 0.43858495476128767 -2.903987324270495 -2.282892009519516 11.371714307642163" Properties=species:S:1:pos:R:3 unique_starting_index=44 config_type=initial n_minim_iter=11 stress="-0.00021423723026864564 -0.00014777425887265653 -1.5204206978703672e-05 -0.00014777425887265653 -0.00023388885633532318 4.52301837947924e-05 -1.5204206978703672e-05 4.52301837947924e-05 -0.0002206205475820326" pbc="T T T"
Si      -1.44241354       1.72275856       9.31683725
Si      -0.03387383       5.15259052       3.81113981
Si      -1.62349186       4.35403208      10.06070552
Si       3.21928532       3.38441530       7.45168231
Si       3.98676668       5.99808600       7.45624699
Si       4.02077124       3.35796959       6.68790318
Si       6.43025085       5.59484253      -2.92554319
Si       1.63169179       3.92193189      -1.05177587
Si      -2.21016449      -0.94062050       9.92133562
Si       5.57065040       4.61367189       2.04186962
Si      -2.52517344      -0.86625999       8.90083033
Si      -1.48858212      -0.94829767       9.13645838
12
Lattice="5.888892784848338 1.5798071453566447 -1.7026650592202286 0.47331845438576564 8.01608928449474 0.4379996553194629 -2.9050187469688797 -2.28417570990406 11.369244937746503" Properties=species:S:1:pos:R:3 unique_starting_index=44 config_type=initial n_minim_iter=12 stress="-0.0002306903012383912 -0.00012196463340251787 -5.049494301532207e-06 -0.00012196463340251787 -0.00026647581186582046 3.4134505403207656e-05 -5.049494301532207e-06 3.4134505403207656e-05 -0.00021421196957346967" pbc="T T T"
Si      -1.44197641       1.72091836       9.31435394
Si      -0.03267655       5.15458036       3.81004804
Si      -1.62264052       4.35299008      10.05821233
Si       3.22029631       3.38468720       7.44938269
Si       3.98786025       5.99851400       7.45366650
Si       4.02151943       3.35805214       6.68553297
Si       6.43217719       5.59642552      -2.92574948
Si       1.63315690       3.92184520      -1.05182353
Si      -2.21025645      -0.94199670       9.91957754
Si       5.56686729       4.61522598       2.04228344
Si      -2.52556164      -0.86756625       8.89811258
Si      -1.48873439      -0.94971449       9.13418785
12
Lattice="5.8900418895616635 1.583373494495611 -1.7027598972610583 0.47791106006413436 8.01583500226767 0.43656348395051636 -2.9074093009110045 -2.287449004510514 11.36531796790168" Properties=species:S:1:pos:R:3 unique_starting_index=44 config_type=initial n_minim_iter=13 stress="-7.920529866338559e-05 -1.5783527370732087e-05 -3.5764313778346776e-05 -1.5783527370732087e-05 -0.0002346182754811143 1.7186496391298168e-06 -3.5764313778346776e-05 1.7186496391298168e-06 -0.000180176854895346" pbc="T T T"
Si      -1.44090612       1.71762455       9.31014565
Si      -0.02985850       5.15738777       3.80795802
Si      -1.62088181       4.34965633      10.05383382
Si       3.22232365       3.38560162       7.44482696
Si       3.99074273       5.99875258       7.44911104
Si       4.02391262       3.35845902       6.68104004
Si       6.43679627       5.60056575      -2.92572649
Si       1.63687340       3.92193971      -1.05202944
Si      -2.21140765      -0.94475298       9.91563318
Si       5.56238556       4.61889250       2.04250931
Si      -2.52645426      -0.87038358       8.89500589
Si      -1.48930285      -0.95360608       9.13044185
12
Lattice="5.8901556929461965 1.5839190983067324 -1.702755269853093 0.47860319203682367 8.015827583760109 0.4363492965115636 -2.907369339089222 -2.2880309058919317 11.365811479366366" Properties=species:S:1:pos:R:3 unique_starting_index=44 config_type=initial n_minim_iter=14 stress="-4.201141773820923e-05 2.30612763433433e-06 -2.3340503879523054e-05 2.30612763433433e-06 -0.00017950230215733648 -5.180926116292261e-06 -2.3340503879523054e-05 -5.180926116292261e-06 -0.00011134264609193044" pbc="T T T"
Si      -1.44055594       1.71695387       9.31043928
Si      -0.02940227       5.15795628       3.80803508
Si      -1.62021042       4.34917759      10.05399024
Si       3.22283617       3.38555648       7.44503875
Si       3.99155710       5.99881256       7.44936665
Si       4.02456433       3.35816283       6.68123253
Si       6.43731218       5.60109227      -2.92586773
Si       1.63739118       3.92167514      -1.05227085
Si      -2.21119176      -0.94509156       9.91587987
Si       5.56172789       4.61966714       2.04294523
Si      -2.52617522      -0.87073707       8.89545717
Si      -1.48907745      -0.95406453       9.13078946
12
Lattice="5.8900891012186145 1.5845826237520633 -1.7026863656697206 0.4794300376038674 8.01583577974221 0.4360946635328239 -2.906656247604893 -2.288847043042669 11.367836980463073" Properties=species:S:1:pos:R:3 unique_starting_index=44 config_type=initial n_minim_iter=15 stress="1.2783674266306603e-05 6.585499622889981e-06 1.322264494016224e-05 6.585499622889981e-06 -1.730794437772454e-05 -7.233516219747844e-06 1.322264494016224e-05 -7.233516219747844e-06 4.945664960097883e-05" pbc="T T T"
Si      -1.43989073       1.71644127       9.31209107
Si      -0.02884750       5.15919179       3.80869580
Si      -1.61864674       4.34830424      10.05536865
Si       3.22385964       3.38563583       7.44659885
Si       3.99303723       5.99860674       7.45075901
Si       4.02578239       3.35748518       6.68282333
Si       6.43763616       5.60198455      -2.92628908
Si       1.63789448       3.92116621      -1.05299559
Si      -2.21026470      -0.94602073       9.91742553
Si       5.56044603       4.62119036       2.04419384
Si      -2.52525099      -0.87166556       8.89699366
Si      -1.48810914      -0.95499983       9.13231689
12
Lattice="5.889976000833752 1.5857426383372786 -1.7025669278618494 0.48087180501588467 8.015867478564056 0.4356519294169819 -2.906346579710048 -2.29005345904198 11.36835434417988" Properties=species:S:1:pos:R:3 unique_starting_index=44 config_type=initial n_minim_iter=16 stress="0.00017541153342245277 7.709826943698118e-05 4.865937680867093e-05 7.709826943698118e-05 0.00047759787920776867 -1.1939735336703629e-05 4.865937680867093e-05 -1.1939735336703629e-05 0.00029895895469588105" pbc="T T T"
Si      -1.43981965       1.71363797       9.31244088
Si      -0.02892156       5.16426258       3.80931373
Si      -1.61626910       4.34621642      10.05498064
Si       3.22467221       3.38477116       7.44673096
Si       3.99534550       5.99766861       7.45063212
Si       4.02694191       3.35726124       6.68302927
Si       6.43821202       5.60230907      -2.92643795
Si       1.63885510       3.92098922      -1.05343401
Si      -2.20887198      -0.94805133       9.91727874
Si       5.55677594       4.62773129       2.04602892
Si      -2.52377698      -0.87371536       8.89711025
Si      -1.48642106      -0.95737541       9.13219873
12
Lattice="5.8890858945209885 1.5861977603664417 -1.70225900729373 0.481388830480418 8.015894939421234 0.43549433528181375 -2.908831706595918 -2.2897118288849057 11.357111993770209" Properties=species:S:1:pos:R:3 unique_starting_index=44 config_type=initial n_minim_iter=17 stress="0.0003925978481279379 5.1852278675129635e-05 1.6480698335283776e-05 5.1852278675129635e-05 0.0013762087389102857 5.2667911870250453e-05 1.6480698335283776e-05 5.2667911870250453e-05 0.0004324991383541025" pbc="T T T"
Si      -1.44101021       1.71051011       9.30268979
Si      -0.03365924       5.18229697       3.80821676
Si      -1.61697272       4.34260981      10.04509387
Si       3.22188795       3.38152020       7.43687341
Si       3.99372401       5.99452367       7.44096329
Si       4.02543467       3.35389166       6.67339066
Si       6.43824352       5.59863843      -2.92398203
Si       1.64070495       3.91682717      -1.05219696
Si      -2.20744951      -0.95181697       9.90701830
Si       5.54429647       4.65013333       2.04763993
Si      -2.52254730      -0.87743548       8.88622522
Si      -1.48525017      -0.96095528       9.12168578
12
Lattice="5.890048448614407 1.5889177853252463 -1.70235792957086 0.4848566651487636 8.015874736245278 0.43442241403905885 -2.9140785071473507 -2.291420521431722 11.343331640287055" Properties=species:S:1:pos:R:3 unique_starting_index=44 config_type=initial n_minim_iter=18 stress="0.00046096337064327795 0.00017392247875032163 2.6043254135085617e-05 0.00017392247875032163 0.0018035917925581105 4.0990033187243513e-05 2.6043254135085617e-05 4.0990033187243513e-05 0.0004992251996522819" pbc="T T T"
Si      -1.44213021       1.70367618       9.28998313
Si      -0.04021808       5.20939563       3.80729922
Si      -1.61664944       4.33504718      10.03193714
Si       3.22284446       3.37614262       7.42448124
Si       3.99498261       5.98968750       7.42761944
Si       4.02446997       3.34856868       6.66015173
Si       6.44397041       5.59508201      -2.92413729
Si       1.64435793       3.91041414      -1.05047642
Si      -2.20876064      -0.95903453       9.89399735
Si       5.53154093       4.68937510       2.04952000
Si      -2.52366472      -0.88469877       8.87383181
Si      -1.48571195      -0.96950847       9.10865066
12
Lattice="5.892661497169022 1.593994844437065 -1.702794576963853 0.49141007568525436 8.015674897002903 0.43238494967346214 -2.9240127259812576 -2.294769356719422 11.320050571579884" Properties=species:S:1:pos:R:3 unique_starting_index=44 config_type=initial n_minim_iter=19 stress="0.0007297908623400597 2.5277040310292368e-05 0.00010065945650926664 2.5277040310292368e-05 0.001802541210428949 4.7038191754711575e-05 0.00010065945650926664 4.7038191754711575e-05 0.0010222771084328571" pbc="T T T"
Si      -1.44252084       1.68752395       9.26747304
Si      -0.05362906       5.26241064       3.80689997
Si      -1.61570914       4.31955206      10.00888612
Si       3.22484060       3.36675400       7.40157360
Si       3.99863580       5.97924587       7.40445518
Si       4.02433500       3.33764135       6.63780963
Si       6.45598695       5.58902188      -2.92348468
Si       1.65161918       3.89774087      -1.04885765
Si      -2.21176179      -0.97451293       9.87177055
Si       5.50872227       4.76814609       2.05390146
Si      -2.52634523      -0.90025286       8.85264376
Si      -1.48820364      -0.98471790       9.08685782
12
Lattice="5.894177153203764 1.600779496270147 -1.7027680558174476 0.500133813988394 8.015091886627431 0.4296496295551218 -2.9325398611625024 -2.2998988899251493 11.29730961196327" Properties=species:S:1:pos:R:3 unique_starting_index=44 config_type=initial n_minim_iter=20 stress="0.0006389301413043045 -1.7866401490457435e-05 0.0002543588547131182 -1.7866401490457435e-05 0.0005780261869924439 -5.927372197539823e-05 0.0002543588547131182 -5.927372197539823e-05 0.0013843360395437766" pbc="T T T"
Si      -1.43969756       1.67089336       9.24484352
Si      -0.06417665       5.31232030       3.80574599
Si      -1.61115819       4.30298436       9.98572670
Si       3.22652006       3.35753666       7.38041437
Si       4.00470306       5.96946266       7.38132446
Si       4.02650261       3.32788619       6.61619497
Si       6.46586986       5.58501048      -2.92295152
Si       1.66062357       3.88637184      -1.04832388
Si      -2.21398652      -0.99003731       9.85130016
Si       5.48640621       4.84372600       2.05825065
Si      -2.52886182      -0.91570834       8.83122787
Si      -1.49090916      -1.00215830       9.06587592
12
Lattice="5.896229798685207 1.6057179058561446 -1.7030418212156613 0.506523825960936 8.01471407423631 0.4276496347026344 -2.9396853071873053 -2.3036351011064164 11.281084703948046" Properties=species:S:1:pos:R:3 unique_starting_index=44 config_type=initial n_minim_iter=21 stress="0.00029364158231440875 7.547651742468993e-05 0.0002358867630569196 7.547651742468993e-05 0.0009087868356519833 -3.2859449678034594e-05 0.0002358867630569196 -3.2859449678034594e-05 0.0009647974440831362" pbc="T T T"
Si      -1.43833083       1.66079959       9.22876237
Si      -0.06742299       5.34213003       3.80307557
Si      -1.60855014       4.29367887       9.96919867
Si       3.22886955       3.35429812       7.36439566
Si       4.00943172       5.96507954       7.36474280
Si       4.02874339       3.32334538       6.60052747
Si       6.47543980       5.58549045      -2.92250235
Si       1.66780073       3.88066575      -1.04799941
Si      -2.21701650      -0.99892447       9.83672008
Si       5.46517546       4.87766608       2.06143262
Si      -2.53192320      -0.92458809       8.81654607
Si      -1.49430348      -1.01131881       9.05133241
