6
Lattice="4.877109482008389 -1.2698170431188925e-64 -2.724188731235244e-52 1.2690051263122413e-64 4.877109482008389 -1.4535729888746918e-15 5.2876039285542024e-52 2.8213604139420343e-15 9.46638643694969" Properties=species:S:1:pos:R:3 unique_starting_index=46 config_type=initial n_minim_iter=1 energy=-972.6260527085986 free_energy=-972.6260527085986 pbc="T T T"
Si       3.91045108       0.96665840       7.21483440
Si       0.96665840       3.91045108       7.21483440
Si       3.91045108       3.91045108       2.25155204
Si       0.96665840       0.96665840       2.25155204
Si       2.43855474       2.43855474       8.24499503
Si       2.43855474       2.43855474       1.22139141
6
Lattice="4.921568934661414 -2.527421008709818e-64 -2.6826226636325056e-52 2.526641593763862e-64 4.921568934661414 -1.4674937026733104e-15 5.467083867121468e-52 2.847059360560513e-15 9.556974192589134" Properties=species:S:1:pos:R:3 unique_starting_index=46 config_type=initial n_minim_iter=2 stress="0.012496972861123551 -1.3045225045913395e-16 -1.0738344850014937e-17 -1.3045225045913395e-16 0.012496972861123558 -5.650483025556277e-17 -1.0738344850014937e-17 -5.650483025556277e-17 0.0041250216317284105" pbc="T T T"
Si       3.96198797       0.95958096       7.24341214
Si       0.95958096       3.96198797       7.24341214
Si       3.96198797       3.96198797       2.31356206
Si       0.95958096       0.95958096       2.31356206
Si       2.46078447       2.46078447       8.32725934
Si       2.46078447       2.46078447       1.22971485
6
Lattice="4.890580460261391 -2.4336199186777315e-64 -2.6517192544033387e-52 2.3940464007196472e-64 4.89058046026139 -1.4502036993299393e-15 5.541023782601359e-52 2.8878230141651918e-15 9.641258800724291" Properties=species:S:1:pos:R:3 unique_starting_index=46 config_type=initial n_minim_iter=3 stress="0.01488912718426074 -6.547787562879845e-17 -4.09441051818262e-17 -6.547787562879845e-17 0.01488912718426057 -3.4295300958911367e-17 -4.09441051818262e-17 -3.4295300958911367e-17 0.010616601871988254" pbc="T T T"
Si       3.96464185       0.92593861       7.23611046
Si       0.92593861       3.96464185       7.23611046
Si       3.96464185       3.96464185       2.40514834
Si       0.92593861       0.92593861       2.40514834
Si       2.44529023       2.44529023       8.40902824
Si       2.44529023       2.44529023       1.23223056
6
Lattice="4.854286925407705 -2.5730354995669964e-64 -2.7374151821081915e-52 3.2168530071688326e-64 4.854286925407705 -1.5040661868377285e-15 5.2738786202964266e-52 2.7295342493308602e-15 9.532192613092311" Properties=species:S:1:pos:R:3 unique_starting_index=46 config_type=initial n_minim_iter=4 stress="0.004705551330820862 -1.4828177954752897e-16 -4.193168641928635e-17 -1.4828177954752897e-16 0.0047055513308209085 -5.1409079123875905e-17 -4.193168641928635e-17 -5.1409079123875905e-17 -0.005867012112294886" pbc="T T T"
Si       3.93842948       0.91585745       7.14839378
Si       0.91585745       3.93842948       7.14839378
Si       3.93842948       3.93842948       2.38379883
Si       0.91585745       0.91585745       2.38379883
Si       2.42714346       2.42714346       8.31519989
Si       2.42714346       2.42714346       1.21699272
6
Lattice="4.800572564477739 -2.4081516789685565e-64 -2.672330493833649e-52 3.337177183781094e-64 4.800572564477738 -1.402945794723831e-15 5.420190987424943e-52 2.936692901926997e-15 9.665355213291667" Properties=species:S:1:pos:R:3 unique_starting_index=46 config_type=initial n_minim_iter=5 stress="-0.0007434717840991719 -5.981189728012727e-17 -4.5478220721758814e-17 -5.981189728012727e-17 -0.0007434717840991001 -8.989552071426704e-17 -4.5478220721758814e-17 -8.989552071426704e-17 0.0023292586484679554" pbc="T T T"
Si       3.89611277       0.90445979       7.24841561
Si       0.90445979       3.89611277       7.24841561
Si       3.89611277       3.89611277       2.41693961
Si       0.90445979       0.90445979       2.41693961
Si       2.40028628       2.40028628       8.43005458
Si       2.40028628       2.40028628       1.23530063
6
Lattice="4.81244165545274 -2.3992680331252622e-64 -2.8256920497072465e-52 3.324270931896621e-64 4.812441655452739 -1.5831932676365098e-15 5.1094681377928414e-52 2.5803454717789352e-15 9.623540897336298" Properties=species:S:1:pos:R:3 unique_starting_index=46 config_type=initial n_minim_iter=6 stress="0.0006870834727693356 1.0361144102379853e-16 -7.727092015987997e-17 1.0361144102379853e-16 0.0006870834727694153 -2.497516796760613e-17 -7.727092015987997e-17 -2.497516796760613e-17 -0.004040442681632809" pbc="T T T"
Si       3.91281732       0.89962434       7.22011566
Si       0.89962434       3.91281732       7.22011566
Si       3.91281732       3.91281732       2.40342524
Si       0.89962434       0.89962434       2.40342524
Si       2.40622083       2.40622083       8.39998247
Si       2.40622083       2.40622083       1.22355842
6
Lattice="4.774629687012149 2.6039183837653546e-64 -2.9334601510121405e-52 3.3205873188774094e-64 4.774629687012149 -1.490437446544856e-15 4.9864279193744484e-52 2.805161084316409e-15 9.82140448028154" Properties=species:S:1:pos:R:3 unique_starting_index=46 config_type=initial n_minim_iter=7 stress="-0.0009812869510568722 3.173490616961564e-17 -7.74660067719536e-17 3.173490616961564e-17 -0.0009812869510568486 9.431965836777547e-18 -7.74660067719536e-17 9.431965836777547e-18 0.0018124479309844324" pbc="T T T"
Si       3.90175327       0.87287642       7.41180607
Si       0.87287642       3.90175327       7.41180607
Si       3.90175327       3.90175327       2.40959841
Si       0.87287642       0.87287642       2.40959841
Si       2.38731484       2.38731484       8.59049762
Si       2.38731484       2.38731484       1.23090686
6
Lattice="4.789650791097892 2.6118766895234657e-64 -3.1660758984171255e-52 4.4210938218526474e-64 4.789650791097891 -1.609344448083148e-15 4.505003793606923e-52 2.5623166057997188e-15 9.756986314764978" Properties=species:S:1:pos:R:3 unique_starting_index=46 config_type=initial n_minim_iter=8 stress="-5.8209956269364636e-05 2.579230622763664e-17 -2.7259639853835906e-17 2.579230622763664e-17 -5.820995626932496e-05 -1.889345494145047e-17 -2.7259639853835906e-17 -1.889345494145047e-17 -0.0014387607477570927" pbc="T T T"
Si       3.90751200       0.88213879       7.35203305
Si       0.88213879       3.90751200       7.35203305
Si       3.90751200       3.90751200       2.40495327
Si       0.88213879       0.88213879       2.40495327
Si       2.39482540       2.39482540       8.52775540
Si       2.39482540       2.39482540       1.22923091
6
Lattice="4.786095607858318 2.6877041684475446e-64 -3.3218433846618736e-52 4.2619530807416114e-64 4.786095607858317 -1.6661958397897172e-15 4.2144505896610465e-52 2.4573476437830917e-15 9.77811532051273" Properties=species:S:1:pos:R:3 unique_starting_index=46 config_type=initial n_minim_iter=9 stress="-7.84452393622305e-05 1.586142906839018e-17 -7.588001481816877e-17 1.586142906839018e-17 -7.844523936218292e-05 -5.843721359194487e-17 -7.588001481816877e-17 -5.843721359194487e-17 -0.00018324857989699702" pbc="T T T"
Si       3.90690661       0.87918899       7.37117245
Si       0.87918899       3.90690661       7.37117245
Si       3.90690661       3.90690661       2.40694287
Si       0.87918899       0.87918899       2.40694287
Si       2.39304780       2.39304780       8.54762629
Si       2.39304780       2.39304780       1.23048903
6
Lattice="4.785940905676793 2.7067908785650048e-64 -3.484683551268021e-52 4.222503619651275e-64 4.785940905676793 -1.8493044790256387e-15 3.90048108427849e-52 2.102920428162679e-15 9.781177797001058" Properties=species:S:1:pos:R:3 unique_starting_index=46 config_type=initial n_minim_iter=10 stress="-2.1477735757704116e-05 2.973278997423529e-17 -2.6267536214260394e-17 2.973278997423529e-17 -2.147773575768033e-05 -8.706146601472458e-17 -2.6267536214260394e-17 -8.706146601472458e-17 7.548960489370478e-05" pbc="T T T"
Si       3.90717661       0.87876430       7.37445934
Si       0.87876430       3.90717661       7.37445934
Si       3.90717661       3.90717661       2.40671846
Si       0.87876430       0.87876430       2.40671846
Si       2.39297045       2.39297045       8.54998134
Si       2.39297045       2.39297045       1.23119646
6
Lattice="4.7857178725285685 2.716384442632382e-64 -3.637419806540484e-52 4.1834037623860354e-64 4.7857178725285685 -1.8583584138898976e-15 3.604212156565249e-52 2.0854172426721065e-15 9.781635426570576" Properties=species:S:1:pos:R:3 unique_starting_index=46 config_type=initial n_minim_iter=11 stress="2.1257192766421904e-05 -1.4867085100901346e-17 -3.860542006740628e-17 -1.4867085100901346e-17 2.1257192766413973e-05 -9.772480176580376e-17 -3.860542006740628e-17 -9.772480176580376e-17 0.00021108378984233597" pbc="T T T"
Si       3.90755392       0.87816395       7.37501950
Si       0.87816395       3.90755392       7.37501950
Si       3.90755392       3.90755392       2.40661593
Si       0.87816395       0.87816395       2.40661593
Si       2.39285894       2.39285894       8.54939289
Si       2.39285894       2.39285894       1.23224253
6
Lattice="4.785932004774817 3.9626096968624503e-64 -3.7781045156870876e-52 1.6916119765065617e-64 4.785932004774817 -1.8076690445784038e-15 3.329357217345353e-52 2.1829530876028145e-15 9.779158779835681" Properties=species:S:1:pos:R:3 unique_starting_index=46 config_type=initial n_minim_iter=12 stress="2.8566251879508716e-05 1.9826026173341145e-17 -2.7795376412405035e-17 1.9826026173341145e-17 2.8566251879603882e-05 -7.405021660547881e-17 -2.7795376412405035e-17 -7.405021660547881e-17 9.395532625042617e-05" pbc="T T T"
Si       3.90784565       0.87808636       7.37329670
Si       0.87808636       3.90784565       7.37329670
Si       3.90784565       3.90784565       2.40586208
Si       0.87808636       0.87808636       2.40586208
Si       2.39296600       2.39296600       8.54612094
Si       2.39296600       2.39296600       1.23303784
