16
Lattice="9.152685361845426 0.5160927004345047 -1.0846372479775745 2.4773994985900476 7.8271339725941145 -1.9303294923978969 2.378570297868905 0.32300821394331314 7.210554906389579" Properties=species:S:1:pos:R:3 unique_starting_index=30 config_type=initial n_minim_iter=14 energy=-3254.0223076622665 free_energy=-3254.0223076622665 pbc="T T T"
Si       9.46441060       4.22843375       3.27675599
Si       4.54430289       4.43778227       0.91889500
Si       3.69878277       3.80888329       0.21379716
Si      10.30993072       4.85733273       3.98185383
Si      10.14117912       3.98349700       3.82371431
Si       3.86753437       4.68271902       0.37193668
Si       5.35923836       4.41614687      -1.87399724
Si       8.64947513       4.25006915       6.06964823
Si       2.88384730       3.83051869       3.00668940
Si      11.12486619       4.83569733       1.18896159
Si      11.76648706       5.18551520       1.72106136
Si       2.24222642       3.48070082       2.47458964
Si       4.37555129       3.56394655       0.76075548
Si       9.63316220       5.10226947       3.43489551
Si       6.00085923       4.76596474      -1.34189747
Si       8.00785425       3.90025127       5.53754846
