16
Lattice="5.853797134963975 -0.35290675705539304 0.6056346964163175 1.0089380165817148 7.317614693822492 0.05366410051376101 1.266761450642652 3.0337335080686807 10.66705504231753" Properties=species:S:1:pos:R:3 unique_starting_index=65 config_type=initial n_minim_iter=1 energy=-2596.582192324779 free_energy=-2596.582192324779 pbc="T T T"
Si       3.98607049       5.23628339       4.81028018
Si       3.58954073       4.64006194       2.94226832
Si       2.42227847       8.92875772       8.82966992
Si       4.98959133       8.23965724       5.59331308
Si       3.27816684       2.54127886       4.22934786
Si       0.95457951       1.94728752       2.70111072
Si       4.75178066       6.26524242       2.80078029
Si       5.70902345       3.81615013       2.89996684
Si       1.67639708       2.78176547       6.63252719
Si       3.89452866       7.19870271       7.35480426
Si       2.88631548       1.42184831       2.58235887
Si       5.65964135       3.21737971       7.12452179
Si       1.27760835       1.32091487       0.80700084
Si       5.37991688       2.07281400       1.95000497
Si       6.14523874       5.95152851       1.48442615
Si       5.05034552       4.36744018       1.08975013
16
Lattice="5.932479912808157 -0.34374747427901287 0.5763254741622756 1.0405719847773067 7.282485631136468 -0.03341614983573472 1.23648834897539 2.9025381868445175 10.577444797017515" Properties=species:S:1:pos:R:3 unique_starting_index=65 config_type=initial n_minim_iter=2 stress="0.01672271983219333 -0.008748560782811143 -0.01766744288246667 -0.008748560782811143 -0.013561470238398817 -0.005704071559324661 -0.01766744288246667 -0.005704071559324661 -0.015691424777259468" pbc="T T T"
Si       4.04064393       5.16969759       4.71976838
Si       3.64300720       4.59412402       2.85122413
Si       2.43379945       8.78536289       8.68211199
Si       5.05235901       8.14648390       5.46316928
Si       3.29861617       2.51853481       4.16936002
Si       0.97380936       1.89380677       2.62883188
Si       4.78896335       6.22083475       2.71798391
Si       5.78374197       3.79179449       2.81318527
Si       1.67574770       2.69396866       6.55186248
Si       3.91767879       7.09046493       7.21820509
Si       2.91209463       1.37698144       2.52683502
Si       5.71000884       3.13225583       7.03223231
Si       1.29363561       1.31162419       0.80339390
Si       5.44306154       2.05079614       1.89651885
Si       6.26648020       5.92080569       1.35831828
Si       5.12497750       4.33336358       1.00418795
16
Lattice="5.926897463372988 -0.3336485608619842 0.5921583146875258 1.0533872654987322 7.29700138315728 -0.034700884192764 1.2669562684644484 2.904521705960563 10.601886162771157" Properties=species:S:1:pos:R:3 unique_starting_index=65 config_type=initial n_minim_iter=3 stress="0.009393543775631214 -0.0009017211081566561 -0.008833378824944558 -0.0009017211081566561 0.0009628568108209965 -0.002072532151898285 -0.008833378824944558 -0.002072532151898285 0.013759903413522574" pbc="T T T"
Si       4.05998019       5.18451322       4.73956363
Si       3.65521652       4.60644795       2.86226929
Si       2.46995990       8.79956162       8.70325236
Si       5.07640277       8.16701843       5.48552291
Si       3.30845760       2.53218630       4.18602740
Si       0.98566634       1.89532138       2.63202506
Si       4.80021095       6.24108284       2.73450667
Si       5.79229467       3.81071806       2.83221687
Si       1.69615905       2.69764732       6.56688108
Si       3.94301811       7.10646775       7.23925400
Si       2.91646257       1.38073356       2.53655701
Si       5.72718286       3.14415703       7.06078406
Si       1.29699024       1.31581036       0.80923937
Si       5.44443484       2.06209821       1.91355965
Si       6.27711879       5.94247395       1.37189093
Si       5.12984484       4.34789276       1.01497738
16
Lattice="5.907869416508977 -0.32350410320453327 0.6192785322899832 1.0629969848557703 7.297430038210876 -0.0340595367549418 1.3238783724265348 2.8999202401719195 10.537705727113694" Properties=species:S:1:pos:R:3 unique_starting_index=65 config_type=initial n_minim_iter=4 stress="0.0021844245080438504 0.016221111980479846 -0.008508901641725599 0.016221111980479846 0.014292105367000967 0.0027710687819592146 -0.008508901641725599 0.0027710687819592146 -0.01783370522508015" pbc="T T T"
Si       4.08339696       5.18852382       4.72814541
Si       3.66601379       4.60875893       2.85917782
Si       2.52416455       8.79473903       8.65519954
Si       5.10265074       8.17094904       5.47536359
Si       3.31978115       2.54509777       4.17579471
Si       1.00076974       1.89277977       2.61427367
Si       4.80818466       6.25075828       2.73847788
Si       5.79341692       3.82463216       2.84031021
Si       1.73161593       2.69450627       6.52761067
Si       3.97638177       7.10798727       7.20675781
Si       2.92238125       1.37817322       2.53052364
Si       5.74908636       3.14844273       7.04455425
Si       1.29992018       1.31631319       0.80965921
Si       5.43629985       2.06786898       1.92988385
Si       6.27408175       5.95288064       1.39162738
Si       5.12481933       4.35112263       1.03129049
16
Lattice="5.89096137798273 -0.3381932314587494 0.6608582830649512 1.0405278792632224 7.262358455030681 -0.03928482593233149 1.388949608159411 2.865091248991616 10.511860012591356" Properties=species:S:1:pos:R:3 unique_starting_index=65 config_type=initial n_minim_iter=5 stress="-0.025680510177696955 0.001158802287982749 0.008783801494974982 0.001158802287982749 -0.017580399961889558 -0.0018617466038167584 0.008783801494974982 -0.0018617466038167584 -0.025969689776925924" pbc="T T T"
Si       4.09425222       5.14769473       4.73758222
Si       3.66270026       4.57289170       2.86850607
Si       2.55706175       8.73098070       8.63509157
Si       5.10373153       8.11194270       5.48808374
Si       3.32702037       2.53064788       4.18504222
Si       1.01119334       1.87509973       2.60650693
Si       4.79357295       6.21005009       2.75525794
Si       5.78329699       3.79486421       2.86712471
Si       1.76869671       2.66436699       6.51192550
Si       3.99156780       7.05385142       7.20066789
Si       2.92886849       1.35235703       2.53736992
Si       5.77052607       3.10614287       7.06296550
Si       1.29897109       1.30399903       0.81273932
Si       5.42189758       2.03900336       1.96259950
Si       6.24569693       5.90806473       1.42289428
Si       5.10319043       4.31354737       1.05587122
16
Lattice="5.922881617173477 -0.3592470389844685 0.7025614805003132 1.0205021533426053 7.263969262061457 -0.042298428389351266 1.4598781864105872 2.8481171998240113 10.512226941408658" Properties=species:S:1:pos:R:3 unique_starting_index=65 config_type=initial n_minim_iter=6 stress="0.020047364671805328 0.0022110622666583167 0.018930802454091133 0.0022110622666583167 0.008537710354603253 0.005589891176091365 0.018930802454091133 0.005589891176091365 0.0003191811218293353" pbc="T T T"
Si       4.13630757       5.13209822       4.75988500
Si       3.68405188       4.55591719       2.88680230
Si       2.60165974       8.71132475       8.64002769
Si       5.13888915       8.09323135       5.52023930
Si       3.35501511       2.53689385       4.20543816
Si       1.02299745       1.86811125       2.60624226
Si       4.81290858       6.20444477       2.78086460
Si       5.81651619       3.78639604       2.89931994
Si       1.81835192       2.64723534       6.50917267
Si       4.02796001       7.03578128       7.21222497
Si       2.96291633       1.32606805       2.54750918
Si       5.83409087       3.07710472       7.10022794
Si       1.30859658       1.29536901       0.81276290
Si       5.44838722       2.01500921       2.00160704
Si       6.26501666       5.89001730       1.45807087
Si       5.12044930       4.29077785       1.08327266
16
Lattice="5.770924901946149 -0.4522892732187928 0.701784994927784 0.886892448138657 7.226232533061751 -0.1502797480872967 1.361177377846616 2.6651794320153757 10.562048177160385" Properties=species:S:1:pos:R:3 unique_starting_index=65 config_type=initial n_minim_iter=7 stress="0.022918861246100743 0.006432940159560386 -0.002685059677867747 0.006432940159560386 0.01851033621814683 0.014140667503740162 -0.002685059677867747 0.014140667503740162 -0.008118402199282115" pbc="T T T"
Si       3.98160794       4.98949114       4.72605189
Si       3.51481894       4.42521674       2.85234002
Si       2.39732316       8.48966863       8.60664427
Si       4.87889235       7.91772022       5.49808552
Si       3.18021814       2.53044563       4.21103263
Si       0.95804815       1.80223012       2.59495293
Si       4.58333587       6.13362048       2.72098807
Si       5.59836522       3.71177310       2.84152822
Si       1.74855273       2.49418933       6.48121422
Si       3.76098957       6.85170977       7.14994438
Si       2.87535006       1.17974711       2.50996006
Si       5.61180915       2.87022972       7.13187131
Si       1.26822070       1.23505580       0.74473312
Si       5.25351985       1.88026728       2.01073936
Si       6.02005783       5.75690120       1.36629505
Si       4.93743274       4.15738747       1.01640778
16
Lattice="5.650670033944339 -0.5259855827220733 0.7570170974325476 0.7984709035699032 7.226409725375282 -0.3814134800308262 1.369784699000558 2.3113701892204417 10.624804651890665" Properties=species:S:1:pos:R:3 unique_starting_index=65 config_type=initial n_minim_iter=8 stress="0.026681339799449515 -0.0019338544166911213 -0.0001566979565592286 -0.0019338544166911213 0.020878169710110903 -0.0029733397964399515 -0.0001566979565592286 -0.0029733397964399515 0.02491053587820024" pbc="T T T"
Si       3.91308383       4.80542465       4.64366936
Si       3.43115684       4.30224847       2.79149338
Si       2.32483371       8.16005315       8.48151021
Si       4.73200695       7.70711470       5.40233641
Si       3.06705984       2.47674515       4.21059556
Si       0.93616275       1.70140656       2.57796168
Si       4.42804824       6.04426783       2.59745855
Si       5.44536983       3.62686711       2.77608655
Si       1.75910850       2.23994138       6.45334550
Si       3.60878285       6.59024472       7.02460129
Si       2.82566601       1.01628653       2.48907873
Si       5.48824335       2.57847167       7.19195797
Si       1.24925846       1.17212915       0.65670084
Si       5.10854320       1.75640444       2.04313038
Si       5.85809056       5.67901948       1.22977579
Si       4.79755913       4.03678969       0.90799163
16
Lattice="5.557179741958615 -0.5499206929988414 0.7899738704793352 0.7556301227744828 7.184371965826067 -0.43385333948484855 1.3826438712318354 2.207721023145064 10.705142835610326" Properties=species:S:1:pos:R:3 unique_starting_index=65 config_type=initial n_minim_iter=9 stress="0.01549464749358221 -0.007660306215437292 -0.0026802007391958428 -0.007660306215437292 -0.005552015241044607 0.011443849570130017 -0.0026802007391958428 0.011443849570130017 0.015514399716973245" pbc="T T T"
Si       3.87978152       4.73404114       4.67752309
Si       3.38731008       4.24602133       2.79608776
Si       2.29609957       8.01393134       8.51821373
Si       4.64361005       7.60886939       5.45803541
Si       2.99151448       2.48984604       4.24412868
Si       0.92358917       1.66243570       2.58272545
Si       4.32684739       5.98495638       2.60813506
Si       5.32773691       3.60057739       2.77446891
Si       1.77444604       2.14378586       6.47142878
Si       3.51869147       6.48237186       7.03502086
Si       2.79175093       0.94373935       2.49368103
Si       5.40021733       2.47678285       7.27668365
Si       1.23520069       1.13672071       0.61932098
Si       5.00648974       1.70641146       2.09853359
Si       5.75403903       5.62870884       1.22031750
Si       4.70771007       3.95076492       0.90663112
16
Lattice="5.503017320634673 -0.5616372083318599 0.8094545685947447 0.7385969406607621 7.190104294811135 -0.4959473484590264 1.3927736900697194 2.1150951643303633 10.724395085545602" Properties=species:S:1:pos:R:3 unique_starting_index=65 config_type=initial n_minim_iter=10 stress="-0.021277373704825877 0.015649737111410354 0.00010667393035029972 0.015649737111410354 0.003001462857951732 0.012486643152359188 0.00010667393035029972 0.012486643152359188 0.02243207864971245" pbc="T T T"
Si       3.86379911       4.69774436       4.66699910
Si       3.36826356       4.21705429       2.77617997
Si       2.28819892       7.93061136       8.48839209
Si       4.60076316       7.56494228       5.44491606
Si       2.95295187       2.48787254       4.24349130
Si       0.91613295       1.63875575       2.57095665
Si       4.27793188       5.97093554       2.58061925
Si       5.26165436       3.59025329       2.75570418
Si       1.78450097       2.07364335       6.46411009
Si       3.47665043       6.42094451       7.00039223
Si       2.77521867       0.90128575       2.48979007
Si       5.35295074       2.40569867       7.30106457
Si       1.22694855       1.12154335       0.59635673
Si       4.95129798       1.68495422       2.11833790
Si       5.69745303       5.62010926       1.18632046
Si       4.66081041       3.92507532       0.88303805
16
Lattice="5.5426648485689896 -0.6319278838041632 0.8414700270380696 0.6719844188071998 7.2850218911592854 -0.5771957483541069 1.4319554253013758 2.0200966662349114 10.58504358885286" Properties=species:S:1:pos:R:3 unique_starting_index=65 config_type=initial n_minim_iter=11 stress="0.019482154587643682 0.002800371037578637 0.005920942185750233 0.002800371037578637 0.02398170538309776 0.0025348661921956285 0.005920942185750233 0.0025348661921956285 0.02299677747459865" pbc="T T T"
Si       3.88817026       4.69295855       4.58803186
Si       3.36346868       4.20959971       2.70726204
Si       2.27216299       7.91802345       8.30952790
Si       4.57539025       7.57820344       5.35015616
Si       2.94745327       2.48183822       4.17832743
Si       0.93260718       1.62285030       2.50674932
Si       4.26032282       5.99037432       2.50756681
Si       5.25967483       3.55782626       2.70892373
Si       1.83150092       1.99182663       6.36491129
Si       3.45000047       6.39870791       6.84510135
Si       2.78475690       0.84924616       2.45973430
Si       5.37848922       2.30431292       7.23282624
Si       1.22913049       1.10602053       0.56739328
Si       4.96198708       1.65116796       2.12726767
Si       5.67990456       5.62341550       1.13624850
Si       4.66277344       3.91762272       0.84528438
16
Lattice="5.585983211733461 -0.6366826407710322 0.8340732886887519 0.6717940888979749 7.300275326396796 -0.5524080045443563 1.442269882168963 2.0621161744807055 10.446343117683668" Properties=species:S:1:pos:R:3 unique_starting_index=65 config_type=initial n_minim_iter=12 stress="0.00445635543693961 -0.006737393188388233 0.002333931277427033 -0.006737393188388233 -0.009344409072889045 -0.014971074425539074 0.002333931277427033 -0.014971074425539074 -0.022318568284620706" pbc="T T T"
Si       3.93658469       4.74151041       4.53819453
Si       3.39627130       4.22346507       2.68486095
Si       2.29142616       7.95966999       8.21738637
Si       4.59671051       7.62943970       5.32936878
Si       2.95460055       2.51807175       4.12283317
Si       0.95058988       1.63452330       2.45181589
Si       4.29470314       6.00768236       2.50063160
Si       5.28653956       3.56532479       2.70057932
Si       1.86980159       1.99047584       6.27927860
Si       3.45810971       6.42956762       6.75308208
Si       2.79872580       0.85314002       2.42719569
Si       5.40164789       2.32302602       7.15477220
Si       1.23758890       1.09905185       0.55647273
Si       4.98897645       1.66996700       2.12627883
Si       5.71822727       5.62395779       1.13690401
Si       4.69995086       3.93465362       0.82496600
16
Lattice="5.586096746966491 -0.6518414209660617 0.780035270890309 0.6489478818482983 7.395765906420025 -0.4636996324614164 1.3538332224788812 2.239762593052377 10.377180136691985" Properties=species:S:1:pos:R:3 unique_starting_index=65 config_type=initial n_minim_iter=13 stress="0.004884077440706273 -0.015247668962010078 -0.0032615041539435026 -0.015247668962010078 -0.005079534849941506 -0.005397752584618764 -0.0032615041539435026 -0.005397752584618764 -0.015918010911993453" pbc="T T T"
Si       3.90510547       4.89069589       4.52708347
Si       3.37201223       4.32127418       2.69385815
Si       2.20544873       8.18610277       8.23105664
Si       4.51821992       7.82646190       5.37358613
Si       2.90633294       2.60701910       4.08705954
Si       0.93048699       1.69669489       2.42934283
Si       4.26426386       6.10188491       2.52526239
Si       5.24705873       3.62717515       2.70022592
Si       1.83627796       2.07761864       6.24063980
Si       3.37381518       6.60025876       6.73775991
Si       2.77607889       0.89372496       2.39952152
Si       5.32484490       2.43469423       7.09589022
Si       1.22647703       1.11071922       0.54326351
Si       4.96314609       1.72105268       2.11541399
Si       5.68383159       5.69545176       1.15865364
Si       4.68722619       3.99874722       0.81316575
16
Lattice="5.612095358266315 -0.6117515485101682 0.7376447702830192 0.6966787080768646 7.40210933456758 -0.39740481141250544 1.3116884774018291 2.35323716852068 10.359226999392162" Properties=species:S:1:pos:R:3 unique_starting_index=65 config_type=initial n_minim_iter=14 stress="-0.002421306231749857 -0.008100059414819753 -0.01040185779070669 -0.008100059414819753 -0.0169713251744655 -0.00036016704228147823 -0.01040185779070669 -0.00036016704228147823 0.005491917485544682" pbc="T T T"
Si       3.94744292       4.99222934       4.53342687
Si       3.40445994       4.37646385       2.70823495
Si       2.22191869       8.28825498       8.26866219
Si       4.54446099       7.94033081       5.42760645
Si       2.90758372       2.66398783       4.06632988
Si       0.93837481       1.73088559       2.42348599
Si       4.32000785       6.14695377       2.54686270
Si       5.27537419       3.66870268       2.70366783
Si       1.84013024       2.12640251       6.23227998
Si       3.38144649       6.68258958       6.74365149
Si       2.78196765       0.94177768       2.38626275
Si       5.31377294       2.52823113       7.07353520
Si       1.23101985       1.11719444       0.53074708
Si       4.98166469       1.79269466       2.11265836
Si       5.73434923       5.73892216       1.17742469
Si       4.73990910       4.04717862       0.80678499
16
Lattice="5.654605466834965 -0.6005164073728755 0.7126390723168995 0.719224088929096 7.493103975116193 -0.3579435189607998 1.2960220635517063 2.4551672707357715 10.274815165633038" Properties=species:S:1:pos:R:3 unique_starting_index=65 config_type=initial n_minim_iter=15 stress="-5.895673573042071e-05 0.006965177691018162 -0.0024046068050794286 0.006965177691018162 0.005391435787865953 0.002730941469382546 -0.0024046068050794286 0.002730941469382546 0.0036807622949015673" pbc="T T T"
Si       4.01486407       5.14650762       4.50579135
Si       3.44487516       4.46621076       2.70443849
Si       2.24805603       8.44556707       8.23392083
Si       4.55906429       8.13868876       5.45776394
Si       2.90995027       2.73895626       4.00495363
Si       0.96580761       1.76742082       2.39177674
Si       4.37272181       6.23496039       2.54418183
Si       5.30185338       3.74180204       2.69364413
Si       1.87604007       2.14904449       6.17867906
Si       3.38066512       6.79777160       6.67655020
Si       2.80251602       0.98220501       2.36381814
Si       5.31668677       2.59554984       7.02702440
Si       1.22759586       1.12482044       0.50721769
Si       4.98852512       1.85806265       2.11159147
Si       5.77935004       5.81760696       1.18262520
Si       4.80322648       4.12523751       0.79628078
16
Lattice="5.64773531139127 -0.5912928820071641 0.6945980570664716 0.731711727262109 7.523298549567407 -0.3626489020584302 1.2749259776248847 2.4664498908314543 10.199370821293" Properties=species:S:1:pos:R:3 unique_starting_index=65 config_type=initial n_minim_iter=16 stress="0.0002629777311901173 0.01394270498623749 0.004109840797944681 0.01394270498623749 0.015700896188103546 -0.0019560272217110934 0.004109840797944681 -0.0019560272217110934 0.005029244544913853" pbc="T T T"
Si       4.04595210       5.21949255       4.46264467
Si       3.43843358       4.50190272       2.68211456
Si       2.25751911       8.47211975       8.17144129
Si       4.53300164       8.22977629       5.45480416
Si       2.88921321       2.77091241       3.93556440
Si       0.96984894       1.78223743       2.34623007
Si       4.38241693       6.26174851       2.51225436
Si       5.29702617       3.76779878       2.67694402
Si       1.89593489       2.11301007       6.12364005
Si       3.34999101       6.81061966       6.58298318
Si       2.80610428       0.99013964       2.34159292
Si       5.27964571       2.58779234       6.98242150
Si       1.21048483       1.12014509       0.48254457
Si       4.96019110       1.87368747       2.10836637
Si       5.78416939       5.84646667       1.15669331
Si       4.81671067       4.15007339       0.76501748
16
Lattice="5.600092917016856 -0.656007283205084 0.7070318259993951 0.6375537955165567 7.522673868788917 -0.31310592139940263 1.2622241470576496 2.524217215916672 10.150982444903365" Properties=species:S:1:pos:R:3 unique_starting_index=65 config_type=initial n_minim_iter=17 stress="0.03162702723549933 -0.009311732635833948 0.00013167661032350653 -0.009311732635833948 0.01391975596506019 0.011558027812610769 0.00013167661032350653 0.011558027812610769 0.028157272364291032" pbc="T T T"
Si       4.02172617       5.28357303       4.47396401
Si       3.35561865       4.49081382       2.73478817
Si       2.19575930       8.48962218       8.19035065
Si       4.36192724       8.32145816       5.59074414
Si       2.81297905       2.81655518       3.86804365
Si       0.96549177       1.80609589       2.31249500
Si       4.28604346       6.24711824       2.55418958
Si       5.20060659       3.73784236       2.72500582
Si       1.92930226       2.04499668       6.08564127
Si       3.20986944       6.78920115       6.51677904
Si       2.79144596       0.96251835       2.34039539
Si       5.18067604       2.51603945       7.00613559
Si       1.15438182       1.08060096       0.44407966
Si       4.84384616       1.83300102       2.16184105
Si       5.68973103       5.78797065       1.19883534
Si       4.74317490       4.08373743       0.79603065
16
Lattice="5.5601112116762375 -0.6862564551084175 0.7253951358954761 0.5933451923509522 7.532819812689303 -0.31035943090463797 1.2712785157669715 2.5235230725282554 10.151345407047582" Properties=species:S:1:pos:R:3 unique_starting_index=65 config_type=initial n_minim_iter=18 stress="0.028809206566116272 -0.0095457277356954 0.0013675030199797307 -0.0095457277356954 0.005941084160166214 0.016062141222720237 0.0013675030199797307 0.016062141222720237 0.022269310472021346" pbc="T T T"
Si       4.00282225       5.30180024       4.48365135
Si       3.30769663       4.48299116       2.76535784
Si       2.17987558       8.48341853       8.20381030
Si       4.27564519       8.36423757       5.65522396
Si       2.78184496       2.83327938       3.82997271
Si       0.95937989       1.81065923       2.29757750
Si       4.23241273       6.23885337       2.56968345
Si       5.14996606       3.71706830       2.75185683
Si       1.94469265       1.99994734       6.08347979
Si       3.15056769       6.76742489       6.48432701
Si       2.77848082       0.95551162       2.34738155
Si       5.13365464       2.46191829       7.03709139
Si       1.11851338       1.06605401       0.43482512
Si       4.78606969       1.81043079       2.19251899
Si       5.63466204       5.77171874       1.21612094
Si       4.69621590       4.05718029       0.81680536
16
Lattice="5.428179041409817 -0.734994889332433 0.7726931062834259 0.5255711344730216 7.630778922533943 -0.4026861161281401 1.2894051464980545 2.414770906305019 10.225738522255119" Properties=species:S:1:pos:R:3 unique_starting_index=65 config_type=initial n_minim_iter=19 stress="0.019486500966280174 0.006973356763228798 0.0016281008156454287 0.006973356763228798 0.02929112012747536 0.0011261499078580827 0.0016281008156454287 0.0011261499078580827 -0.005521010123291198" pbc="T T T"
Si       3.91516876       5.31339899       4.47244315
Si       3.19369435       4.51251907       2.77793026
Si       2.15796033       8.45886129       8.20631102
Si       4.09748378       8.44875338       5.70186950
Si       2.72418945       2.79168267       3.77045396
Si       0.92654742       1.82022509       2.28424236
Si       4.10767260       6.26555794       2.54166510
Si       5.02855851       3.68273600       2.77312209
Si       1.93099910       1.89174085       6.12671604
Si       3.05460779       6.72991053       6.40616955
Si       2.73314583       0.95619189       2.37696431
Si       5.02327248       2.31036767       7.12212019
Si       1.03415968       1.05996076       0.43817440
Si       4.65703226       1.77105594       2.21925501
Si       5.49938484       5.81012577       1.18937863
Si       4.56999893       4.06268519       0.84260070
16
Lattice="5.374774565645408 -0.7489881038452824 0.9088659144662954 0.5005892672123949 7.524835073437975 -0.4689317988428404 1.4711930799727142 2.2422588682959557 10.584750445556699" Properties=species:S:1:pos:R:3 unique_starting_index=65 config_type=initial n_minim_iter=20 stress="-0.030530347677365007 0.008963402182554286 -0.004817620481041464 0.008963402182554286 -0.007811872241032852 -0.004363460397773765 -0.004817620481041464 -0.004363460397773765 -0.014204668743366174" pbc="T T T"
Si       3.92052385       5.11624433       4.63057052
Si       3.19764026       4.39899876       2.93263052
Si       2.31194029       8.21746650       8.46844284
Si       4.12962468       8.22832326       5.92610883
Si       2.79304744       2.65439877       3.87886455
Si       0.93112347       1.78772032       2.37420679
Si       4.09315640       6.15321540       2.64544255
Si       5.01403210       3.59183698       2.91965808
Si       1.96146780       1.82000143       6.35907654
Si       3.14868717       6.56172790       6.58395218
Si       2.73366533       0.93632285       2.50343026
Si       5.11165307       2.12759868       7.43819055
Si       0.98516858       1.04020712       0.51262189
Si       4.67494625       1.68057835       2.33206998
Si       5.49202511       5.71042415       1.29601996
Si       4.53318828       3.98882151       1.00339421
16
Lattice="5.333710657467825 -0.7869018069542312 1.0088779895433668 0.4477038117850485 7.5157831342299035 -0.48068065352162564 1.5980501153029723 2.1930404854279075 10.815634199890038" Properties=species:S:1:pos:R:3 unique_starting_index=65 config_type=initial n_minim_iter=21 stress="-0.04075658166123748 0.003920697865246931 0.003233482745953115 0.003920697865246931 -0.025510031167476594 0.003275468605409904 0.003233482745953115 0.003275468605409904 -0.004661529945450242" pbc="T T T"
Si       3.92374930       5.05960984       4.75286620
Si       3.18208664       4.37115560       3.06515138
Si       2.40438737       8.15106111       8.67205296
Si       4.08731479       8.19523489       6.15331213
Si       2.81652307       2.60276318       3.93724678
Si       0.93619465       1.79498036       2.42119084
Si       4.05644667       6.12810981       2.74705216
Si       4.97648197       3.54415588       3.04548712
Si       2.01056681       1.76818037       6.50929425
Si       3.17070380       6.52651816       6.68575485
Si       2.72898865       0.92019756       2.59168926
Si       5.14938411       2.01358664       7.66948414
Si       0.93827860       1.01926964       0.56137091
Si       4.65806441       1.64436562       2.43576000
Si       5.45905715       5.67438121       1.40208846
Si       4.49509116       3.95654401       1.13460785
