22
Lattice="8.998481541055138 -2.9054392687319806 -1.193398309108395 -8.185615131863589 9.36410600330473 -1.7425770262767202 -4.975445380635144 -1.439466099339388 11.724203409244705" Properties=species:S:1:pos:R:3 unique_starting_index=18 config_type=initial n_minim_iter=1 energy=-4253.688545485917 free_energy=-4253.688545485917 pbc="T T T"
Si      -0.93568573       6.28207716      -0.00995717
Si       1.07398117       0.21991049       9.45027888
Si      -4.22898263      -1.24063961       9.41488801
Si       0.75812489       0.37314939      10.50387280
Si      -8.27300380       3.94587296      10.78772534
Si       6.11895468       1.05733610      -1.53536406
Si       3.44957724       0.54738464      -1.80911071
Si      -1.66289041       0.02674782       9.01046527
Si      -1.86442736      -0.01926481       9.91895548
Si      -8.03362296       2.62143018       5.24257284
Si       1.12437525      -0.10074513       3.09290642
Si      -5.92934810       4.65372759       5.49220418
Si      -4.09489366      -0.99543426       8.45047529
Si      -3.57003827       5.56537037      -0.03468028
Si       0.59540379       0.63880447       4.10753299
Si      -0.55414543       5.47829918      -0.31313787
Si      -1.62054580      -0.88797935       3.52158130
Si       5.17701187      -4.81071198       7.58656910
Si       0.75537737       0.81659955       3.13979572
Si      -5.63692553       3.71971667       5.79461199
Si      -5.51892342       4.00504602       4.82304650
Si      -1.32722349      -0.84789679       9.00236551
22
Lattice="8.998443478439103 -2.905405679858978 -1.1933676083360973 -8.185578595620859 9.36404418140383 -1.7426308278849585 -4.975396078999528 -1.439495770549506 11.724227606727167" Properties=species:S:1:pos:R:3 unique_starting_index=18 config_type=initial n_minim_iter=2 stress="-0.0003367156610717582 -6.191283759076893e-05 -8.782974366407093e-05 -6.191283759076893e-05 -0.00011283269750471275 -4.6727590646876266e-05 -8.782974366407093e-05 -4.6727590646876266e-05 -2.7608937860723104e-05" pbc="T T T"
Si      -0.93566822       6.28208458      -0.00999051
Si       1.07401518       0.21988059       9.45030985
Si      -4.22893871      -1.24068351       9.41489759
Si       0.75814503       0.37312138      10.50387582
Si      -8.27292466       3.94580953      10.78776509
Si       6.11891815       1.05737945      -1.53534569
Si       3.44955909       0.54741426      -1.80911004
Si      -1.66286893       0.02671643       9.01048242
Si      -1.86436437      -0.01931415       9.91899998
Si      -8.03355609       2.62140458       5.24256762
Si       1.12437122      -0.10073908       3.09292476
Si      -5.92929001       4.65366078       5.49217816
Si      -4.09482071      -0.99548737       8.45050246
Si      -3.57003166       5.56532903      -0.03472359
Si       0.59540080       0.63879043       4.10755142
Si      -0.55411334       5.47825305      -0.31319169
Si      -1.62055693      -0.88799949       3.52159914
Si       5.17700535      -4.81069035       7.58657663
Si       0.75538059       0.81658415       3.13981083
Si      -5.63690561       3.71964875       5.79462056
Si      -5.51889772       4.00503606       4.82304874
Si      -1.32720264      -0.84792791       9.00241407
22
Lattice="8.998459789125826 -2.9054034349137257 -1.1933625889119617 -8.185592293459854 9.364045098167589 -1.7426347540853209 -4.975399124988301 -1.4394962752625444 11.724227265552951" Properties=species:S:1:pos:R:3 unique_starting_index=18 config_type=initial n_minim_iter=3 stress="3.5251595502414875e-05 7.710015783143524e-05 -1.5600510146358192e-06 7.710015783143524e-05 -4.854244955408436e-05 -1.3402253644013197e-05 -1.5600510146358192e-06 -1.3402253644013197e-05 3.4466976607496457e-06" pbc="T T T"
Si      -0.93566717       6.28208884      -0.00999031
Si       1.07402410       0.21988299       9.45031307
Si      -4.22894152      -1.24068491       9.41489682
Si       0.75815340       0.37312438      10.50387831
Si      -8.27293216       3.94581013      10.78776492
Si       6.11892968       1.05738363      -1.53534154
Si       3.44956505       0.54741636      -1.80910821
Si      -1.66286664       0.02671747       9.01048373
Si      -1.86436078      -0.01931362       9.91900219
Si      -8.03356727       2.62140399       5.24256464
Si       1.12437520      -0.10073754       3.09292657
Si      -5.92929588       4.65366116       5.49217632
Si      -4.09482269      -0.99548910       8.45050224
Si      -3.57003704       5.56533034      -0.03472533
Si       0.59540444       0.63879194       4.10755336
Si      -0.55411148       5.47825526      -0.31319215
Si      -1.62055905      -0.88800020       3.52159890
Si       5.17701872      -4.81068890       7.58657945
Si       0.75538443       0.81658556       3.13981263
Si      -5.63691233       3.71964854       5.79461993
Si      -5.51890450       4.00503801       4.82304779
Si      -1.32720000      -0.84792746       9.00241639
22
Lattice="8.998549516885738 -2.9055938237849444 -1.193332934351493 -8.185792514020507 9.364308526253176 -1.7426331464800846 -4.975346455342754 -1.4393858101153194 11.724208577911444" Properties=species:S:1:pos:R:3 unique_starting_index=18 config_type=initial n_minim_iter=4 stress="2.4535467309604632e-05 -7.109148327145484e-05 2.8121757027821273e-05 -7.109148327145484e-05 6.52512110355643e-05 1.0503953466060444e-05 2.8121757027821273e-05 1.0503953466060444e-05 1.0762522919076861e-05" pbc="T T T"
Si      -0.93576996       6.28220239      -0.00997003
Si       1.07407763       0.21991286       9.45032221
Si      -4.22889640      -1.24060593       9.41487788
Si       0.75820165       0.37317834      10.50388770
Si      -8.27298114       3.94604700      10.78776653
Si       6.11893650       1.05730522      -1.53530462
Si       3.44956368       0.54736243      -1.80908985
Si      -1.66283030       0.02678650       9.01048743
Si      -1.86431911      -0.01924406       9.91900867
Si      -8.03362703       2.62159752       5.24254501
Si       1.12439534      -0.10073773       3.09293804
Si      -5.92936930       4.65384566       5.49217227
Si      -4.09477814      -0.99541314       8.45048818
Si      -3.57015092       5.56547522      -0.03471759
Si       0.59540958       0.63881361       4.10756755
Si      -0.55419831       5.47834904      -0.31317349
Si      -1.62053728      -0.88796620       3.52157934
Si       5.17716183      -4.81081223       7.58656973
Si       0.75539051       0.81660424       3.13982783
Si      -5.63697644       3.71981115       5.79462476
Si      -5.51897899       4.00522213       4.82304939
Si      -1.32714795      -0.84788187       9.00242544
22
Lattice="8.998570160141083 -2.905630453531519 -1.1933676194394955 -8.185816961943566 9.36435450082708 -1.7425510526662689 -4.975376761255679 -1.4393094908614112 11.724176894426103" Properties=species:S:1:pos:R:3 unique_starting_index=18 config_type=initial n_minim_iter=5 stress="3.4258183514155976e-06 1.9352784984956005e-05 -4.483879499961196e-05 1.9352784984956005e-05 4.242258152502721e-05 2.2837126511570793e-05 -4.483879499961196e-05 2.2837126511570793e-05 -9.409020631897508e-05" pbc="T T T"
Si      -0.93577467       6.28221927      -0.00994366
Si       1.07406775       0.21997878       9.45026457
Si      -4.22890899      -1.24059322       9.41484422
Si       0.75817035       0.37328625      10.50383467
Si      -8.27299821       3.94612443      10.78780841
Si       6.11892862       1.05731110      -1.53529376
Si       3.44955040       0.54733983      -1.80908232
Si      -1.66283124       0.02684172       9.01047660
Si      -1.86434313      -0.01920053       9.91899748
Si      -8.03367403       2.62166964       5.24256892
Si       1.12438054      -0.10070164       3.09293513
Si      -5.92937987       4.65389297       5.49219693
Si      -4.09476872      -0.99539492       8.45046979
Si      -3.57018532       5.56552150      -0.03466512
Si       0.59537557       0.63884404       4.10757265
Si      -0.55420922       5.47839572      -0.31313791
Si      -1.62054373      -0.88791497       3.52151669
Si       5.17716598      -4.81081257       7.58643898
Si       0.75539031       0.81663743       3.13983784
Si      -5.63701334       3.71984727       5.79467039
Si      -5.51902031       4.00532338       4.82308801
Si      -1.32716083      -0.84783139       9.00242456
22
Lattice="8.998570659478649 -2.9056432673706323 -1.193313306500545 -8.18586405764301 9.364329400863838 -1.7426617796128767 -4.975283404541359 -1.4393087567927196 11.724332080898831" Properties=species:S:1:pos:R:3 unique_starting_index=18 config_type=initial n_minim_iter=6 stress="-2.9563137519787593e-06 -9.493282359320532e-07 1.5310421783727656e-06 -9.493282359320532e-07 -3.2515358700715685e-05 5.028297099771451e-06 1.5310421783727656e-06 5.028297099771451e-06 0.0001038293756880067" pbc="T T T"
Si      -0.93579644       6.28218264      -0.00997350
Si       1.07413996       0.21995246       9.45041344
Si      -4.22882661      -1.24061151       9.41496473
Si       0.75824531       0.37326573      10.50400061
Si      -8.27292694       3.94609579      10.78791688
Si       6.11890401       1.05729462      -1.53526984
Si       3.44952983       0.54732247      -1.80908163
Si      -1.66275659       0.02682144       9.01061313
Si      -1.86427157      -0.01922296       9.91914580
Si      -8.03365300       2.62167716       5.24258924
Si       1.12440163      -0.10070456       3.09299606
Si      -5.92935234       4.65386684       5.49223404
Si      -4.09469435      -0.99540127       8.45057652
Si      -3.57021206       5.56550858      -0.03469858
Si       0.59539975       0.63883010       4.10764709
Si      -0.55423398       5.47837008      -0.31316421
Si      -1.62051479      -0.88790358       3.52155382
Si       5.17724494      -4.81082684       7.58659209
Si       0.75541339       0.81662569       3.13989773
Si      -5.63698440       3.71982414       5.79471890
Si      -5.51900420       4.00531690       4.82311841
Si      -1.32708865      -0.84784166       9.00256680
22
Lattice="8.998585717417972 -2.9057171435928297 -1.1930977048066662 -8.185994445488138 9.36442478666087 -1.7428793804139102 -4.97505216297383 -1.439370888307478 11.724082509439302" Properties=species:S:1:pos:R:3 unique_starting_index=18 config_type=initial n_minim_iter=7 stress="-6.811535202189653e-06 -1.5732133739715037e-05 0.0001021358422653861 -1.5732133739715037e-05 -8.380376629686258e-05 -2.0940184885819378e-05 0.0001021358422653861 -2.0940184885819378e-05 -0.00010752016166318402" pbc="T T T"
Si      -0.93584781       6.28221423      -0.01007786
Si       1.07433653       0.21984933       9.45026515
Si      -4.22861432      -1.24073456       9.41475014
Si       0.75843460       0.37318070      10.50383432
Si      -8.27276042       3.94605059      10.78758263
Si       6.11883926       1.05728881      -1.53512567
Si       3.44948546       0.54728060      -1.80897513
Si      -1.66256011       0.02673234       9.01047115
Si      -1.86409746      -0.01931176       9.91896609
Si      -8.03362672       2.62172545       5.24233613
Si       1.12446186      -0.10071656       3.09298466
Si      -5.92929277       4.65385834       5.49202457
Si      -4.09451106      -0.99545392       8.45038319
Si      -3.57028491       5.56558466      -0.03479308
Si       0.59547056       0.63879972       4.10760860
Si      -0.55429489       5.47839680      -0.31324310
Si      -1.62045696      -0.88790595       3.52146782
Si       5.17746569      -4.81097792       7.58657870
Si       0.75548121       0.81660692       3.13988391
Si      -5.63691730       3.71980603       5.79449737
Si      -5.51896736       4.00534155       4.82291266
Si      -1.32690390      -0.84791060       9.00243035
22
Lattice="8.99862001762948 -2.9057897430542967 -1.1931364622234424 -8.186039384766596 9.364596579526548 -1.7428881448027205 -4.975105067988771 -1.4394072347207039 11.724208277757922" Properties=species:S:1:pos:R:3 unique_starting_index=18 config_type=initial n_minim_iter=8 stress="-5.1755673017454795e-06 1.4063344859170877e-05 -2.3975617704125046e-05 1.4063344859170877e-05 7.87689661209661e-05 -5.1424670749385526e-05 -2.3975617704125046e-05 -5.1424670749385526e-05 2.3224744725789002e-05" pbc="T T T"
Si      -0.93586637       6.28232891      -0.01011150
Si       1.07431488       0.21981227       9.45031878
Si      -4.22863849      -1.24082186       9.41484499
Si       0.75837835       0.37317248      10.50390262
Si      -8.27283026       3.94609391      10.78770831
Si       6.11882937       1.05730890      -1.53515889
Si       3.44949185       0.54725931      -1.80899118
Si      -1.66258148       0.02669672       9.01056709
Si      -1.86414998      -0.01934455       9.91905960
Si      -8.03370564       2.62179303       5.24240580
Si       1.12445091      -0.10071206       3.09301296
Si      -5.92934080       4.65392375       5.49210752
Si      -4.09453734      -0.99548347       8.45047452
Si      -3.57032273       5.56570788      -0.03477602
Si       0.59545058       0.63880621       4.10765045
Si      -0.55431506       5.47849040      -0.31327814
Si      -1.62048862      -0.88791123       3.52150228
Si       5.17748158      -4.81111508       7.58660205
Si       0.75547825       0.81662166       3.13992266
Si      -5.63696961       3.71985067       5.79455694
Si      -5.51901642       4.00541427       4.82296819
Si      -1.32693579      -0.84794561       9.00252088
22
Lattice="8.998693773110517 -2.905866255529401 -1.1931527483260418 -8.186194996375047 9.364501699692218 -1.7427480201440841 -4.975058634077532 -1.4390987298401796 11.724182522175314" Properties=species:S:1:pos:R:3 unique_starting_index=18 config_type=initial n_minim_iter=9 stress="-1.7262211189374364e-06 -1.1102379060539078e-06 -9.401179022604926e-06 -1.1102379060539078e-06 -1.0619319629425398e-05 5.158402400485718e-05 -9.401179022604926e-06 5.158402400485718e-05 2.3022249356693005e-06" pbc="T T T"
Si      -0.93593366       6.28226487      -0.01001136
Si       1.07438945       0.21996141       9.45032052
Si      -4.22857296      -1.24065765       9.41480993
Si       0.75839553       0.37341768      10.50391427
Si      -8.27285819       3.94632070      10.78778821
Si       6.11881170       1.05721929      -1.53510797
Si       3.44949444       0.54714977      -1.80894925
Si      -1.66253101       0.02686419       9.01058790
Si      -1.86411062      -0.01914745       9.91907746
Si      -8.03379104       2.62196561       5.24242825
Si       1.12446610      -0.10063828       3.09302700
Si      -5.92938819       4.65401263       5.49223328
Si      -4.09449464      -0.99526263       8.45046087
Si      -3.57041013       5.56568775      -0.03466131
Si       0.59546066       0.63889020       4.10768870
Si      -0.55437737       5.47841941      -0.31319517
Si      -1.62049955      -0.88778115       3.52147926
Si       5.17762160      -4.81098356       7.58650061
Si       0.75549815       0.81668366       3.13997081
Si      -5.63701654       3.71994959       5.79459584
Si      -5.51905721       4.00550622       4.82303369
Si      -1.32688770      -0.84775296       9.00252241
22
Lattice="8.998789425738076 -2.9059178983563108 -1.1929548871008138 -8.186402541426675 9.364563232303528 -1.7431125393929332 -4.974920469789066 -1.4393327482566043 11.72418671706102" Properties=species:S:1:pos:R:3 unique_starting_index=18 config_type=initial n_minim_iter=10 stress="5.5102803867719496e-05 -3.093102073410057e-05 -3.0936561577662224e-05 -3.093102073410057e-05 -3.9906682914088466e-05 -4.924691727433025e-05 -3.0936561577662224e-05 -4.924691727433025e-05 -1.3346801836077132e-05" pbc="T T T"
Si      -0.93601189       6.28225395      -0.01020284
Si       1.07455838       0.21968829       9.45031771
Si      -4.22841649      -1.24096950       9.41480199
Si       0.75850480       0.37318709      10.50391585
Si      -8.27280551       3.94609823      10.78763553
Si       6.11878748       1.05720432      -1.53503716
Si       3.44949482       0.54711663      -1.80891970
Si      -1.66241222       0.02662388       9.01058666
Si      -1.86396527      -0.01941328       9.91909552
Si      -8.03385583       2.62192738       5.24226334
Si       1.12450258      -0.10071337       3.09304555
Si      -5.92939843       4.65389449       5.49212418
Si      -4.09439108      -0.99542047       8.45048366
Si      -3.57051632       5.56573585      -0.03485011
Si       0.59549140       0.63881009       4.10770813
Si      -0.55445957       5.47842098      -0.31333638
Si      -1.62049435      -0.88779568       3.52147753
Si       5.17784618      -4.81125775       7.58666373
Si       0.75554784       0.81662861       3.13998697
Si      -5.63703803       3.71979126       5.79438797
Si      -5.51905634       4.00540617       4.82286697
Si      -1.32675881      -0.84801569       9.00256375
22
Lattice="8.998705979522299 -2.9059141386663923 -1.192876072150544 -8.186339569758513 9.364589098020435 -1.743187472879363 -4.974774590734617 -1.439337585145435 11.724180793317101" Properties=species:S:1:pos:R:3 unique_starting_index=18 config_type=initial n_minim_iter=11 stress="-5.437211635225982e-05 3.276511146251508e-05 4.211919956784473e-05 3.276511146251508e-05 5.6127010386605e-05 4.056382870394706e-06 4.211919956784473e-05 4.056382870394706e-06 7.375769276740651e-06" pbc="T T T"
Si      -0.93599090       6.28229630      -0.01020529
Si       1.07464488       0.21969788       9.45035308
Si      -4.22828154      -1.24101079       9.41479729
Si       0.75859477       0.37321493      10.50395317
Si      -8.27262623       3.94610927      10.78760745
Si       6.11871637       1.05722969      -1.53497785
Si       3.44945254       0.54711331      -1.80889633
Si      -1.66230682       0.02662346       9.01060294
Si      -1.86384746      -0.01941673       9.91911680
Si      -8.03375117       2.62193639       5.24220634
Si       1.12451698      -0.10070311       3.09306448
Si      -5.92928616       4.65390671       5.49211597
Si      -4.09427876      -0.99542392       8.45048901
Si      -3.57048109       5.56577581      -0.03487823
Si       0.59552236       0.63883368       4.10773327
Si      -0.55445410       5.47845273      -0.31333164
Si      -1.62046188      -0.88777986       3.52147267
Si       5.17787407      -4.81127970       7.58671566
Si       0.75557926       0.81665227       3.14001190
Si      -5.63693598       3.71978737       5.79434153
Si      -5.51895763       4.00541663       4.82283376
Si      -1.32666259      -0.84802950       9.00258582
22
Lattice="8.998922183908244 -2.906009333515503 -1.1928692873253728 -8.186674437750792 9.364483073578745 -1.7432144984243474 -4.974810076236066 -1.4391906231795646 11.724275340114229" Properties=species:S:1:pos:R:3 unique_starting_index=18 config_type=initial n_minim_iter=12 stress="6.734527094184034e-06 -3.264720013630328e-06 -9.981469995739081e-06 -3.264720013630328e-06 -9.971439074517045e-06 1.846786765595394e-05 -9.981469995739081e-06 1.846786765595394e-05 2.0393856538070855e-06" pbc="T T T"
Si      -0.93613910       6.28221232      -0.01019004
Si       1.07467869       0.21966387       9.45041630
Si      -4.22825066      -1.24103062       9.41490895
Si       0.75861754       0.37323634      10.50401426
Si      -8.27280126       3.94615355      10.78770223
Si       6.11875260       1.05712068      -1.53495714
Si       3.44948907       0.54697791      -1.80893422
Si      -1.66226678       0.02663289       9.01068097
Si      -1.86382971      -0.01942550       9.91920071
Si      -8.03397084       2.62205922       5.24221930
Si       1.12452318      -0.10069433       3.09308385
Si      -5.92945577       4.65386295       5.49224508
Si      -4.09429813      -0.99531192       8.45064425
Si      -3.57067821       5.56578488      -0.03489098
Si       0.59550560       0.63887212       4.10777730
Si      -0.55460757       5.47832462      -0.31330013
Si      -1.62051382      -0.88762206       3.52151052
Si       5.17809682      -4.81131044       7.58669400
Si       0.75561357       0.81667963       3.14006347
Si      -5.63710316       3.71971602       5.79430246
Si      -5.51912960       4.00540953       4.82284786
Si      -1.32662474      -0.84803454       9.00267046
22
Lattice="8.999141842977151 -2.9061260629631747 -1.192621058901413 -8.187100998068884 9.364488510092583 -1.743659045678284 -4.9746348787781445 -1.4393567504986144 11.724337161057516" Properties=species:S:1:pos:R:3 unique_starting_index=18 config_type=initial n_minim_iter=13 stress="-2.7838429418897142e-06 6.029240098372333e-06 7.171002849323108e-06 6.029240098372333e-06 -2.6478983154495124e-06 -1.3377881099571048e-05 7.171002849323108e-06 -1.3377881099571048e-05 1.3065312215196492e-06" pbc="T T T"
Si      -0.93631817       6.28221843      -0.01039350
Si       1.07487618       0.21934171       9.45050393
Si      -4.22805222      -1.24140382       9.41505234
Si       0.75878548       0.37303238      10.50410680
Si      -8.27279901       3.94595718      10.78755128
Si       6.11874462       1.05699649      -1.53485278
Si       3.44950601       0.54682549      -1.80893973
Si      -1.66202612       0.02635336       9.01075026
Si      -1.86361891      -0.01972194       9.91923363
Si      -8.03417975       2.62210371       5.24199076
Si       1.12453594      -0.10076565       3.09312074
Si      -5.92951042       4.65366114       5.49215850
Si      -4.09417692      -0.99543769       8.45084767
Si      -3.57089677       5.56583511      -0.03516044
Si       0.59557798       0.63882538       4.10781502
Si      -0.55480582       5.47824760      -0.31339639
Si      -1.62053340      -0.88751641       3.52159878
Si       5.17848869      -4.81163150       7.58683992
Si       0.75570311       0.81663103       3.14011441
Si      -5.63713624       3.71944541       5.79404443
Si      -5.51927407       4.00536094       4.82262423
Si      -1.32642330      -0.84831355       9.00272611
22
Lattice="8.999348862969036 -2.906276778051779 -1.1925403660608267 -8.18746085817273 9.36454626894813 -1.7437926957880785 -4.974597292054675 -1.439301797135151 11.724375344370838" Properties=species:S:1:pos:R:3 unique_starting_index=18 config_type=initial n_minim_iter=14 stress="-2.982033693188024e-07 5.474476461358822e-06 3.866207683197603e-06 5.474476461358822e-06 -7.707889815131631e-06 -5.301316819372301e-06 3.866207683197603e-06 -5.301316819372301e-06 3.9624664794097274e-06" pbc="T T T"
Si      -0.93647222       6.28220945      -0.01045901
Si       1.07498673       0.21923108       9.45058229
Si      -4.22796842      -1.24152742       9.41515851
Si       0.75883960       0.37298124      10.50416610
Si      -8.27289741       3.94603973      10.78751175
Si       6.11875242       1.05688169      -1.53479926
Si       3.44955207       0.54668919      -1.80894258
Si      -1.66196168       0.02627207       9.01077874
Si      -1.86354799      -0.01978747       9.91926156
Si      -8.03439490       2.62225881       5.24191965
Si       1.12454566      -0.10077410       3.09313136
Si      -5.92961956       4.65362912       5.49218476
Si      -4.09415065      -0.99539454       8.45099206
Si      -3.57107120       5.56591003      -0.03524765
Si       0.59563203       0.63883899       4.10784862
Si      -0.55500256       5.47822990      -0.31338286
Si      -1.62060470      -0.88738826       3.52163130
Si       5.17876914      -4.81177762       7.58683499
Si       0.75573683       0.81663310       3.14014448
Si      -5.63724282       3.71936036       5.79394517
Si      -5.51944298       4.00546230       4.82253773
Si      -1.32635998      -0.84838229       9.00273032
22
Lattice="8.999524938143312 -2.906446331025963 -1.1925148079651444 -8.18776012768947 9.364685008862146 -1.7438115822168367 -4.974602138806 -1.4391952474246894 11.724357874282399" Properties=species:S:1:pos:R:3 unique_starting_index=18 config_type=initial n_minim_iter=15 stress="1.2881983148668989e-06 2.8159168342416436e-06 2.0162048552999083e-06 2.8159168342416436e-06 -5.489335496315301e-06 1.7646831775278496e-06 2.0162048552999083e-06 1.7646831775278496e-06 1.7420766168101185e-06" pbc="T T T"
Si      -0.93657944       6.28225436      -0.01047591
Si       1.07500983       0.21921296       9.45060635
Si      -4.22792018      -1.24157066       9.41519203
Si       0.75882780       0.37297575      10.50416841
Si      -8.27304485       3.94619736      10.78744917
Si       6.11874881       1.05677555      -1.53475329
Si       3.44959394       0.54659339      -1.80894474
Si      -1.66193449       0.02628378       9.01076494
Si      -1.86351004      -0.01977443       9.91925933
Si      -8.03458779       2.62244603       5.24189020
Si       1.12455304      -0.10076781       3.09312155
Si      -5.92973544       4.65369126       5.49223117
Si      -4.09416909      -0.99530067       8.45104864
Si      -3.57121529       5.56599811      -0.03527615
Si       0.59565464       0.63885356       4.10785710
Si      -0.55513322       5.47826579      -0.31334937
Si      -1.62063440      -0.88726791       3.52164805
Si       5.17896573      -4.81188773       7.58676579
Si       0.75574237       0.81664960       3.14015037
Si      -5.63736288       3.71937990       5.79387781
Si      -5.51959091       4.00562871       4.82248977
Si      -1.32632391      -0.84837275       9.00270602
22
Lattice="8.999841650455465 -2.906774453825785 -1.1924641109480694 -8.18829717181074 9.365017321653733 -1.7438490307490297 -4.974617041001412 -1.4390350169825716 11.724281993559655" Properties=species:S:1:pos:R:3 unique_starting_index=18 config_type=initial n_minim_iter=16 stress="2.309580249138919e-06 -1.665301946275292e-06 7.11547006762218e-06 -1.665301946275292e-06 6.767080980310042e-06 8.405065111449539e-07 7.11547006762218e-06 8.405065111449539e-07 -1.361437339285262e-05" pbc="T T T"
Si      -0.93682184       6.28237020      -0.01054638
Si       1.07503839       0.21919916       9.45061903
Si      -4.22783035      -1.24167797       9.41519243
Si       0.75886120       0.37299634      10.50415450
Si      -8.27330673       3.94649519      10.78728861
Si       6.11877387       1.05659024      -1.53464857
Si       3.44962072       0.54643888      -1.80895857
Si      -1.66189293       0.02630795       9.01071331
Si      -1.86346196      -0.01977447       9.91921879
Si      -8.03491855       2.62278861       5.24182867
Si       1.12458040      -0.10075936       3.09309726
Si      -5.92995962       4.65383533       5.49231074
Si      -4.09420741      -0.99512417       8.45109140
Si      -3.57143135       5.56616189      -0.03535284
Si       0.59568790       0.63886226       4.10785263
Si      -0.55538738       5.47832855      -0.31332654
Si      -1.62070738      -0.88710102       3.52166188
Si       5.17929992      -4.81212237       7.58662487
Si       0.75577413       0.81667978       3.14014696
Si      -5.63757326       3.71945734       5.79372213
Si      -5.51986606       4.00595173       4.82238723
Si      -1.32628303      -0.84836386       9.00264622
22
Lattice="9.0002052528922 -2.9070936623666124 -1.1924660490592027 -8.188879328627896 9.365267680458844 -1.743852294339885 -4.97469611589212 -1.438828102251253 11.724331922295994" Properties=species:S:1:pos:R:3 unique_starting_index=18 config_type=initial n_minim_iter=17 stress="5.362068114609729e-06 -3.7772297078703195e-06 1.4023375340380528e-06 -3.7772297078703195e-06 8.234269264516684e-06 7.493114226365249e-06 1.4023375340380528e-06 7.493114226365249e-06 -5.634546136068712e-06" pbc="T T T"
Si      -0.93701895       6.28242459      -0.01062268
Si       1.07503198       0.21915754       9.45073512
Si      -4.22781003      -1.24178348       9.41527464
Si       0.75888052       0.37300835      10.50424688
Si      -8.27364497       3.94685071      10.78727470
Si       6.11882674       1.05639444      -1.53456666
Si       3.44967291       0.54627219      -1.80898329
Si      -1.66189694       0.02634823       9.01077519
Si      -1.86346603      -0.01974550       9.91927539
Si      -8.03531746       2.62311489       5.24184226
Si       1.12455066      -0.10075324       3.09310646
Si      -5.93025727       4.65394589       5.49253984
Si      -4.09428070      -0.99487656       8.45123515
Si      -3.57168183       5.56628594      -0.03544841
Si       0.59568368       0.63887080       4.10787080
Si      -0.55563717       5.47832113      -0.31326406
Si      -1.62076710      -0.88690895       3.52168361
Si       5.17963034      -4.81229865       7.58647437
Si       0.75581087       0.81669282       3.14017623
Si      -5.63780560       3.71951892       5.79362556
Si      -5.52022924       4.00625314       4.82235814
Si      -1.32631772      -0.84830888       9.00267603
22
Lattice="9.000548618894824 -2.9073419476115325 -1.1924119398703368 -8.189432297012623 9.365396963747934 -1.7439541713231848 -4.974732274939293 -1.4387071290075581 11.72436523601011" Properties=species:S:1:pos:R:3 unique_starting_index=18 config_type=initial n_minim_iter=18 stress="8.215918586898522e-06 -3.873584421072195e-06 -1.4347682504035702e-06 -3.873584421072195e-06 1.1735422814082484e-05 6.983419442581182e-06 -1.4347682504035702e-06 6.983419442581182e-06 1.1911837155953511e-06" pbc="T T T"
Si      -0.93721166       6.28238793      -0.01077729
Si       1.07504844       0.21906201       9.45084851
Si      -4.22774769      -1.24193644       9.41533896
Si       0.75888439       0.37294907      10.50432779
Si      -8.27388163       3.94704471      10.78718139
Si       6.11886796       1.05617871      -1.53447888
Si       3.44976208       0.54611898      -1.80896586
Si      -1.66185102       0.02634671       9.01084784
Si      -1.86342249      -0.01975804       9.91932527
Si      -8.03564725       2.62333440       5.24180233
Si       1.12453636      -0.10078874       3.09313297
Si      -5.93053672       4.65395058       5.49274475
Si      -4.09436881      -0.99468744       8.45137427
Si      -3.57192775       5.56635749      -0.03560730
Si       0.59572857       0.63887004       4.10789023
Si      -0.55588054       5.47820710      -0.31325020
Si      -1.62083190      -0.88675687       3.52169299
Si       5.17998122      -4.81245676       7.58631430
Si       0.75588289       0.81667833       3.14020594
Si      -5.63802281       3.71943843       5.79346116
Si      -5.52057655       4.00647120       4.82228162
Si      -1.32630408      -0.84830495       9.00271309
22
Lattice="9.000977314453662 -2.9075855697983664 -1.1922422986584154 -8.190146611354843 9.36539175907867 -1.7442278174786823 -4.974692018440246 -1.4386402513262184 11.724332804009025" Properties=species:S:1:pos:R:3 unique_starting_index=18 config_type=initial n_minim_iter=19 stress="9.62535929445877e-06 -2.228372893703897e-06 -1.8946281486509106e-06 -2.228372893703897e-06 9.37805254418976e-06 6.823668215819471e-06 -1.8946281486509106e-06 6.823668215819471e-06 -1.4137844946250484e-07" pbc="T T T"
Si      -0.93741128       6.28222939      -0.01104650
Si       1.07515026       0.21883112       9.45096496
Si      -4.22753708      -1.24219499       9.41538449
Si       0.75897847       0.37279255      10.50439237
Si      -8.27408479       3.94709313      10.78688405
Si       6.11889701       1.05588173      -1.53433798
Si       3.44978455       0.54589150      -1.80892216
Si      -1.66176704       0.02627656       9.01087300
Si      -1.86333778      -0.01987302       9.91934030
Si      -8.03606637       2.62347957       5.24164531
Si       1.12454345      -0.10090655       3.09315714
Si      -5.93082890       4.65382034       5.49295296
Si      -4.09443011      -0.99446777       8.45154247
Si      -3.57221933       5.56641131      -0.03589254
Si       0.59580063       0.63881071       4.10789725
Si      -0.55614039       5.47791379      -0.31329999
Si      -1.62089596      -0.88655323       3.52171297
Si       5.18052687      -4.81261939       7.58608194
Si       0.75596647       0.81660478       3.14021800
Si      -5.63822979       3.71914078       5.79313182
Si      -5.52096957       4.00669365       4.82209079
Si      -1.32625103      -0.84838338       9.00272232
22
Lattice="9.001562310367127 -2.9078579079070135 -1.191909857920892 -8.191145164436152 9.365249985818512 -1.7447770808367526 -4.974548457000346 -1.4386563834191635 11.72429903212763" Properties=species:S:1:pos:R:3 unique_starting_index=18 config_type=initial n_minim_iter=20 stress="1.2793080706411358e-05 7.379045445839941e-06 -1.2769776420537116e-06 7.379045445839941e-06 -3.2058020685668444e-06 -2.5015265197267325e-06 -1.2769776420537116e-06 -2.5015265197267325e-06 4.268296859132752e-06" pbc="T T T"
Si      -0.93769831       6.28186665      -0.01149482
Si       1.07538818       0.21831129       9.45114312
Si      -4.22725633      -1.24270599       9.41547948
Si       0.75919357       0.37247169      10.50449040
Si      -8.27435208       3.94697476      10.78639351
Si       6.11888582       1.05548516      -1.53412454
Si       3.44979993       0.54561075      -1.80885725
Si      -1.66154851       0.02612425       9.01089749
Si      -1.86306770      -0.02012688       9.91939923
Si      -8.03663817       2.62355382       5.24137962
Si       1.12466133      -0.10111852       3.09320573
Si      -5.93117251       4.65349289       5.49320827
Si      -4.09446237      -0.99416897       8.45181937
Si      -3.57260595       5.56646178      -0.03639074
Si       0.59594030       0.63865205       4.10793116
Si      -0.55652367       5.47737169      -0.31343193
Si      -1.62100820      -0.88626871       3.52174822
Si       5.18128259      -4.81286763       7.58580867
Si       0.75612963       0.81645680       3.14023710
Si      -5.63839340       3.71856886       5.79259820
Si      -5.52148331       4.00695739       4.82174910
Si      -1.32608071      -0.84854855       9.00277174
22
Lattice="9.002144709226465 -2.9082144142471633 -1.191563388180901 -8.192183999991174 9.36525551402264 -1.745325596901234 -4.9743477426189795 -1.4386151910916 11.724306469765843" Properties=species:S:1:pos:R:3 unique_starting_index=18 config_type=initial n_minim_iter=21 stress="1.4454203673936282e-05 1.74554610606452e-05 8.296627860372593e-06 1.74554610606452e-05 4.2730697077399715e-06 -3.3527625577839516e-05 8.296627860372593e-06 -3.3527625577839516e-05 1.1294904618835126e-05" pbc="T T T"
Si      -0.93799943       6.28157439      -0.01192376
Si       1.07569358       0.21782734       9.45130023
Si      -4.22692218      -1.24317849       9.41564839
Si       0.75939971       0.37224732      10.50461297
Si      -8.27456707       3.94693597      10.78598161
Si       6.11883445       1.05506280      -1.53385646
Si       3.44980664       0.54533651      -1.80882080
Si      -1.66131757       0.02603657       9.01094345
Si      -1.86276071      -0.02033900       9.91945909
Si      -8.03717362       2.62371419       5.24113373
Si       1.12481516      -0.10132615       3.09329984
Si      -5.93158845       4.65323571       5.49348258
Si      -4.09439412      -0.99374507       8.45217133
Si      -3.57302222       5.56658144      -0.03686515
Si       0.59611873       0.63848826       4.10798678
Si      -0.55690611       5.47690364      -0.31349488
Si      -1.62106956      -0.88598041       3.52180431
Si       5.18210342      -4.81311186       7.58563092
Si       0.75634461       0.81629774       3.14030385
Si      -5.63859324       3.71807751       5.79206376
Si      -5.52205229       4.00732275       4.82139032
Si      -1.32592022      -0.84867069       9.00283708
