24
Lattice="5.855203421835048 -2.2210976194565283e-18 -2.221097619456427e-18 3.854325311847337e-18 10.16067846685491 8.606460024984295e-15 3.854325311847275e-18 -8.606460024984294e-15 10.16067846685491" Properties=species:S:1:pos:R:3 unique_starting_index=95 config_type=initial n_minim_iter=1 energy=-3895.0846328357575 free_energy=-3895.0846328357575 pbc="T T T"
Si       1.45905229       0.97051217       7.44605423
Si       4.38665400       9.19016630       2.71462424
Si       2.92285314       2.71462424       0.97051217
Si      -0.00474857       7.44605423       9.19016630
Si       1.86957687       8.04325447       8.80192666
Si       4.79717858       2.11742399       1.35875180
Si       3.33337773       1.35875180       8.04325447
Si       0.40577602       8.80192666       2.11742399
Si       5.20476089       3.77023270       0.29756962
Si       2.27715918       6.39044577       9.86310885
Si       0.81335833       9.86310885       3.77023270
Si       3.74096004       0.29756962       6.39044577
Si       5.85717140       2.73779028       5.39787421
Si       2.92956969       7.42288819       4.76280426
Si       1.46576883       4.76280426       2.73779028
Si       4.39337054       5.39787421       7.42288819
Si       5.40061223       6.22758744       5.39597954
Si       2.47301052       3.93309102       4.76469892
Si       1.00920967       4.76469892       6.22758744
Si       3.93681138       5.39597954       3.93309102
Si       5.83284180       5.97519993       0.39483990
Si       2.90524009       4.18547853       9.76583857
Si       1.44143923       9.76583857       5.97519993
Si       4.36904095       0.39483990       4.18547853
24
Lattice="5.848537427662666 -2.243287719647813e-18 -2.2432877196477112e-18 3.802731558730584e-18 10.137200199002622 9.656932577646817e-15 3.802731558730521e-18 -9.77753560551882e-15 10.137200199002626" Properties=species:S:1:pos:R:3 unique_starting_index=95 config_type=initial n_minim_iter=2 stress="-0.011397893130654691 -1.2064424034918428e-15 1.3170929929408725e-16 -1.2064424034918428e-15 -0.01894577399902063 -1.4050223428202352e-15 1.3170929929408725e-16 -1.4050223428202352e-15 -0.01894577399902224" pbc="T T T"
Si       1.45867834       0.96740871       7.42766648
Si       4.38294706       9.16979149       2.70953372
Si       2.92081270       2.70953372       0.96740871
Si      -0.00345601       7.42766648       9.16979149
Si       1.86661530       8.02727346       8.78368355
Si       4.79088401       2.10992674       1.35351665
Si       3.32874966       1.35351665       8.02727346
Si       0.40448094       8.78368355       2.10992674
Si       5.19754841       3.76053369       0.29756198
Si       2.27327969       6.37666651       9.83963822
Si       0.81114534       9.83963822       3.76053369
Si       3.73541405       0.29756198       6.37666651
Si       5.85069815       2.73183076       5.38587361
Si       2.92642943       7.40536944       4.75132659
Si       1.46429508       4.75132659       2.73183076
Si       4.38856379       5.38587361       7.40536944
Si       5.39431508       6.21239687       5.38334819
Si       2.47004637       3.92480333       4.75385201
Si       1.00791201       4.75385201       6.21239687
Si       3.93218072       5.38334819       3.92480333
Si       5.82698794       5.96042238       0.39453065
Si       2.90271923       4.17677781       9.74266955
Si       1.44058487       9.74266955       5.96042238
Si       4.36485358       0.39453065       4.17677781
24
Lattice="5.931599737856219 -2.292037439596792e-18 -2.2920374395966882e-18 3.764319292818285e-18 10.116059762898702 1.0499892086363962e-14 3.76431929281822e-18 -1.064310868856089e-14 10.116059762898704" Properties=species:S:1:pos:R:3 unique_starting_index=95 config_type=initial n_minim_iter=3 stress="-0.031121535526364562 2.2130997548275068e-17 2.2053264705646828e-16 2.2130997548275068e-17 0.0026042545526919255 -2.7228443016625696e-15 2.2053264705646828e-16 -2.7228443016625696e-15 0.0026042545526913283" pbc="T T T"
Si       1.55941457       0.91541925       7.34003418
Si       4.52521444       9.20064052       2.77602558
Si       3.04231450       2.77602558       0.91541925
Si       0.07651463       7.34003418       9.20064052
Si       1.84080253       8.20363830       8.89636724
Si       4.80660240       1.91242146       1.21969252
Si       3.32370247       1.21969252       8.20363830
Si       0.35790260       8.89636724       1.91242146
Si       5.18602907       3.69950055       0.33376569
Si       2.22022920       6.41655921       9.78229408
Si       0.73732927       9.78229408       3.69950055
Si       3.70312913       0.33376569       6.41655921
Si       5.94742719       2.75035617       5.40646783
Si       2.98162732       7.36570360       4.70959194
Si       1.49872739       4.70959194       2.75035617
Si       4.46452725       5.40646783       7.36570360
Si       5.46094571       6.14619588       5.36064975
Si       2.49514584       3.96986389       4.75541001
Si       1.01224591       4.75541001       6.14619588
Si       3.97804578       5.36064975       3.96986389
Si       5.96372816       5.87207456       0.44400441
Si       2.99792829       4.24398520       9.67205535
Si       1.51502836       9.67205535       5.87207456
Si       4.48082823       0.44400441       4.24398520
24
Lattice="6.008051521665855 -2.3406652515548893e-18 -2.340665251554784e-18 3.719304820911745e-18 10.088911748754201 1.1149732773803893e-14 3.71930482091168e-18 -1.1207822907471637e-14 10.088911748754201" Properties=species:S:1:pos:R:3 unique_starting_index=95 config_type=initial n_minim_iter=4 stress="-0.0012274837169014528 -2.363735727347048e-16 7.280923298406555e-16 -2.363735727347048e-16 -0.0027886904262019035 -9.14994475102083e-16 7.280923298406555e-16 -9.14994475102083e-16 -0.0027886904262039718" pbc="T T T"
Si       1.59262102       0.90482846       7.30753721
Si       4.59664678       9.18408328       2.78137454
Si       3.09463390       2.78137454       0.90482846
Si       0.09060814       7.30753721       9.18408328
Si       1.85691582       8.21285731       8.89589336
Si       4.86094158       1.87605444       1.19301839
Si       3.35892870       1.19301839       8.21285731
Si       0.35490294       8.89589336       1.87605444
Si       5.23755642       3.67817913       0.34001141
Si       2.23353066       6.41073262       9.74890034
Si       0.73151778       9.74890034       3.67817913
Si       3.73554354       0.34001141       6.41073262
Si       6.02625106       2.74698672       5.39724646
Si       3.02222530       7.34192503       4.69166529
Si       1.52021242       4.69166529       2.74698672
Si       4.52423818       5.39724646       7.34192503
Si       5.52958173       6.12090506       5.34430236
Si       2.52555596       3.96800669       4.74460939
Si       1.02354308       4.74460939       6.12090506
Si       4.02756884       5.34430236       3.96800669
Si       6.04999568       5.84279815       0.45186947
Si       3.04596992       4.24611360       9.63704228
Si       1.54395703       9.63704228       5.84279815
Si       4.54798280       0.45186947       4.24611360
24
Lattice="6.058367900437948 -2.3604534766556963e-18 -2.3604534766555904e-18 3.7289737618847065e-18 10.118579004291155 1.0120679539922177e-14 3.72897376188464e-18 -1.0203500597827439e-14 10.11857900429115" Properties=species:S:1:pos:R:3 unique_starting_index=95 config_type=initial n_minim_iter=5 stress="0.0014071782220711317 -5.3015222367403875e-16 1.2292658582691756e-15 -5.3015222367403875e-16 0.02812910275154597 -2.423092776535833e-15 1.2292658582691756e-15 -2.423092776535833e-15 0.028129102751540815" pbc="T T T"
Si       1.63916957       0.89622664       7.30616504
Si       4.66835353       9.22235237       2.81241396
Si       3.15376155       2.81241396       0.89622664
Si       0.12457760       7.30616504       9.22235237
Si       1.85448957       8.29279152       8.97623618
Si       4.88367352       1.82578749       1.14234283
Si       3.36908155       1.14234283       8.29279152
Si       0.33989760       8.97623618       1.82578749
Si       5.24606684       3.65551763       0.35865492
Si       2.21688289       6.46306138       9.75992408
Si       0.70229092       9.75992408       3.65551763
Si       3.73147487       0.35865492       6.46306138
Si       6.07994041       2.76308689       5.42362966
Si       3.05075646       7.35549211       4.69494934
Si       1.53616448       4.69494934       2.76308689
Si       4.56534843       5.42362966       7.35549211
Si       5.57220505       6.12102565       5.35572301
Si       2.54302110       3.99755336       4.76285600
Si       1.02842912       4.76285600       6.12102565
Si       4.05761307       5.35572301       3.99755336
Si       6.12124888       5.82570961       0.47748269
Si       3.09206493       4.29286939       9.64109632
Si       1.57747296       9.64109632       5.82570961
Si       4.60665691       0.47748269       4.29286939
24
Lattice="6.26637481299145 -2.342660433396816e-18 -2.342660433396711e-18 3.96138586198177e-18 10.292501750393702 7.400524431673175e-15 3.961385861981706e-18 -7.430839471095602e-15 10.292501750393695" Properties=species:S:1:pos:R:3 unique_starting_index=95 config_type=initial n_minim_iter=6 stress="0.0280452790801617 -8.879640091497035e-16 6.32602493628488e-16 -8.879640091497035e-16 0.035714267317864125 -2.1330369342333737e-15 6.32602493628488e-16 -2.1330369342333737e-15 0.03571426731785951" pbc="T T T"
Si       1.78160148       0.87605227       7.35997004
Si       4.91478889       9.41644948       2.93253171
Si       3.34819518       2.93253171       0.87605227
Si       0.21500778       7.35997004       9.41644948
Si       1.86526390       8.50129580       9.21950719
Si       4.99845131       1.79120595       1.07299456
Si       3.43185760       1.07299456       8.50129580
Si       0.29867020       9.21950719       1.79120595
Si       5.35555746       3.64028783       0.38027452
Si       2.22237005       6.65221392       9.91222723
Si       0.65577635       9.91222723       3.64028783
Si       3.78896376       0.38027452       6.65221392
Si       6.28509585       2.82186818       5.53007496
Si       3.15190844       7.47063357       4.76242679
Si       1.58531474       4.76242679       2.82186818
Si       4.71850214       5.53007496       7.47063357
Si       5.75984529       6.19840516       5.43856444
Si       2.62665788       4.09409659       4.85393731
Si       1.06006418       4.85393731       6.19840516
Si       4.19325159       5.43856444       4.09409659
Si       6.37605305       5.89047148       0.50672963
Si       3.24286564       4.40203027       9.78577212
Si       1.67627194       9.78577212       5.89047148
Si       4.80945935       0.50672963       4.40203027
24
Lattice="6.43956872089231 -2.35721298068189e-18 -2.357212980681788e-18 4.0505126943938955e-18 10.294550353957012 2.5607093567847547e-16 4.050512694393847e-18 -3.97877638841746e-16 10.294550353957002" Properties=species:S:1:pos:R:3 unique_starting_index=95 config_type=initial n_minim_iter=7 stress="6.258131664100186e-05 5.483999868147458e-16 6.267312219530728e-16 5.483999868147458e-16 -0.009229698784922994 -4.141225174831258e-15 6.267312219530728e-16 -4.141225174831258e-15 -0.009229698784923806" pbc="T T T"
Si       1.90146234       0.86518659       7.31436684
Si       5.12124670       9.42936376       2.98018352
Si       3.51135452       2.98018352       0.86518659
Si       0.29157016       7.31436684       9.42936376
Si       1.86539598       8.53022479       9.25581443
Si       5.08518034       1.76432556       1.03873592
Si       3.47528816       1.03873592       8.53022479
Si       0.25550380       9.25581443       1.76432556
Si       5.46759270       3.60060281       0.35369104
Si       2.24780834       6.69394755       9.94085931
Si       0.63791616       9.94085931       3.60060281
Si       3.85770052       0.35369104       6.69394755
Si       6.44097294       2.83486114       5.52432019
Si       3.22118858       7.45968922       4.77023017
Si       1.61129640       4.77023017       2.83486114
Si       4.83108076       5.52432019       7.45968922
Si       5.91891048       6.18373954       5.43705781
Si       2.69912612       4.11081082       4.85749254
Si       1.08923394       4.85749254       6.18373954
Si       4.30901830       5.43705781       4.11081082
Si       6.58702780       5.87579779       0.51901983
Si       3.36724343       4.41875256       9.77553053
Si       1.75735125       9.77553053       5.87579779
Si       4.97713561       0.51901983       4.41875256
24
Lattice="6.578509044598515 -2.1972784210441422e-18 -2.19727842104407e-18 4.42540634278854e-18 10.304716970900978 -1.5401944978530844e-14 4.425406342788585e-18 1.500465068383134e-14 10.304716970900959" Properties=species:S:1:pos:R:3 unique_starting_index=95 config_type=initial n_minim_iter=8 stress="0.013736342485891628 -2.52900119426235e-15 5.368316596335995e-16 -2.52900119426235e-15 0.0055542880241167296 -3.1462125776350343e-15 5.368316596335995e-16 -3.1462125776350343e-15 0.005554288024103079" pbc="T T T"
Si       2.02416485       0.85153244       7.25608093
Si       5.31341937       9.45318453       3.04863604
Si       3.66879211       3.04863604       0.85153244
Si       0.37953759       7.25608093       9.45318453
Si       1.85584234       8.59993836       9.31560264
Si       5.14509686       1.70477861       0.98911433
Si       3.50046960       0.98911433       8.59993836
Si       0.21121508       9.31560264       1.70477861
Si       5.53132588       3.55702186       0.33164381
Si       2.24207136       6.74769511       9.97307316
Si       0.59744410       9.97307316       3.55702186
Si       3.88669862       0.33164381       6.74769511
Si       6.55980666       2.85551497       5.52372517
Si       3.27055214       7.44920200       4.78099180
Si       1.62592488       4.78099180       2.85551497
Si       4.91517940       5.52372517       7.44920200
Si       6.04547142       6.16532952       5.43913271
Si       2.75621689       4.13938745       4.86558426
Si       1.11158963       4.86558426       6.16532952
Si       4.40084415       5.43913271       4.13938745
Si       6.77279299       5.85451213       0.54096471
Si       3.48353847       4.45020484       9.76375226
Si       1.83891121       9.76375226       5.85451213
Si       5.12816573       0.54096471       4.45020484
24
Lattice="6.524970005105953 -2.30118673319953e-18 -2.301186733199524e-18 4.12908951924267e-18 10.073743893571397 -5.009109554179722e-14 4.129089519242897e-18 4.965340004645929e-14 10.073743893571379" Properties=species:S:1:pos:R:3 unique_starting_index=95 config_type=initial n_minim_iter=9 stress="-0.036021863746975434 2.4894489975778427e-16 5.04638432090245e-16 2.4894489975778427e-16 -0.04071895388615048 -2.6369129068804e-15 5.04638432090245e-16 -2.6369129068804e-15 -0.04071895388615654" pbc="T T T"
Si       2.03237302       0.87379127       7.05540804
Si       5.29485802       9.19995262       3.01833586
Si       3.66361552       3.01833586       0.87379127
Si       0.40113052       7.05540804       9.19995262
Si       1.85187597       8.41440107       9.05738208
Si       5.11436097       1.65934283       1.01636182
Si       3.48311847       1.01636182       8.41440107
Si       0.22063347       9.05738208       1.65934283
Si       5.46833711       3.47169613       0.24672503
Si       2.20585211       6.60204776       9.82701886
Si       0.57460961       9.82701886       3.47169613
Si       3.83709461       0.24672503       6.60204776
Si       6.45491528       2.81595873       5.35489268
Si       3.19243027       7.25778516       4.71885121
Si       1.56118777       4.71885121       2.81595873
Si       4.82367278       5.35489268       7.25778516
Si       6.00557619       6.02002493       5.32610586
Si       2.74309119       4.05371897       4.74763803
Si       1.11184869       4.74763803       6.02002493
Si       4.37433369       5.32610586       4.05371897
Si       6.74202469       5.71677510       0.55286727
Si       3.47953969       4.35696879       9.52087663
Si       1.84829719       9.52087663       5.71677510
Si       5.11078219       0.55286727       4.35696879
24
Lattice="6.560752821705132 -2.503350525852867e-18 -2.5033505258529783e-18 3.76542621515819e-18 9.9626141184831 -8.985273364363586e-14 3.765426215158725e-18 8.94638293795986e-14 9.962614118483078" Properties=species:S:1:pos:R:3 unique_starting_index=95 config_type=initial n_minim_iter=10 stress="0.005222477610238936 1.0412941086794315e-16 1.3194982285054915e-15 1.0412941086794315e-16 -0.03567670967224528 -2.8417994602486717e-15 1.3194982285054915e-15 -2.8417994602486717e-15 -0.035676709672249694" pbc="T T T"
Si       2.05186154       0.91505894       6.95376284
Si       5.33223795       9.04755518       3.00885128
Si       3.69204974       3.00885128       0.91505894
Si       0.41167333       6.95376284       9.04755518
Si       1.87620517       8.28369407       8.88990697
Si       5.15658158       1.67892005       1.07270714
Si       3.51639337       1.07270714       8.28369407
Si       0.23601696       8.88990697       1.67892005
Si       5.50809458       3.43663318       0.16652094
Si       2.22771817       6.52598093       9.79609318
Si       0.58752997       9.79609318       3.43663318
Si       3.86790638       0.16652094       6.52598093
Si       6.43549489       2.81046576       5.24154796
Si       3.15511848       7.15214836       4.72106616
Si       1.51493027       4.72106616       2.81046576
Si       4.79530669       5.24154796       7.15214836
Si       6.05217269       5.94875336       5.27990522
Si       2.77179628       4.01386076       4.68270890
Si       1.13160807       4.68270890       5.94875336
Si       4.41198448       5.27990522       4.01386076
Si       6.78786905       5.67178252       0.55166217
Si       3.50749264       4.29083160       9.41095195
Si       1.86730443       9.41095195       5.67178252
Si       5.14768084       0.55166217       4.29083160
24
Lattice="6.624610200492216 -2.7716199797246687e-18 -2.7716199797249788e-18 3.3142528499328395e-18 9.889548640133022 -1.3971390715346965e-13 3.3142528499338075e-18 1.3927567808792853e-13 9.889548640132993" Properties=species:S:1:pos:R:3 unique_starting_index=95 config_type=initial n_minim_iter=11 stress="-0.034965236494721934 4.073110018368083e-16 -4.892187253866587e-17 4.073110018368083e-16 -0.037884844322353436 -1.6803934957983429e-15 -4.892187253866587e-17 -1.6803934957983429e-15 -0.037884844322357406" pbc="T T T"
Si       2.11308964       0.94452406       6.85982601
Si       5.42539474       8.94502458       3.02972263
Si       3.76924219       3.02972263       0.94452406
Si       0.45693709       6.85982601       8.94502458
Si       1.89557093       8.20910709       8.77977521
Si       5.20787603       1.68044155       1.10977343
Si       3.55172348       1.10977343       8.20910709
Si       0.23941838       8.77977521       1.68044155
Si       5.53813580       3.39231038       0.09259259
Si       2.22583070       6.49723826       9.79695605
Si       0.56967815       9.79695605       3.39231038
Si       3.88198325       0.09259259       6.49723826
Si       6.44235156       2.81996897       5.15222656
Si       3.13004646       7.06957967       4.73732208
Si       1.47389391       4.73732208       2.81996897
Si       4.78619901       5.15222656       7.06957967
Si       6.12380734       5.89140296       5.25153004
Si       2.81150224       3.99814568       4.63801860
Si       1.15534969       4.63801860       5.89140296
Si       4.46765479       5.25153004       3.99814568
Si       6.87820049       5.63559582       0.56050551
Si       3.56589539       4.25395282       9.32904313
Si       1.90974284       9.32904313       5.63559582
Si       5.22204794       0.56050551       4.25395282
24
Lattice="6.656462397283135 -2.913901169269787e-18 -2.913901169270249e-18 3.089762751849898e-18 9.897381213595247 -1.7581296185750084e-13 3.089762751851177e-18 1.7540961342607238e-13 9.897381213595224" Properties=species:S:1:pos:R:3 unique_starting_index=95 config_type=initial n_minim_iter=12 stress="0.0015128350465913776 -1.650892358665375e-15 1.1007651710779343e-15 -1.650892358665375e-15 -0.025477596419584254 -1.830607383889313e-15 1.1007651710779343e-15 -1.830607383889313e-15 -0.025477596419585965" pbc="T T T"
Si       2.13323987       0.96288403       6.85103658
Si       5.46147107       8.93449718       3.04634463
Si       3.79735547       3.04634463       0.96288403
Si       0.46912427       6.85103658       8.93449718
Si       1.91250859       8.19737273       8.76460382
Si       5.24073979       1.70000848       1.13277739
Si       3.57662419       1.13277739       8.19737273
Si       0.24839299       8.76460382       1.70000848
Si       5.55612069       3.38482754       0.06268158
Si       2.22788949       6.51255368       9.83469963
Si       0.56377390       9.83469963       3.38482754
Si       3.89200509       0.06268158       6.51255368
Si       6.44843043       2.83797137       5.12776923
Si       3.12019923       7.05940985       4.76961198
Si       1.45608363       4.76961198       2.83797137
Si       4.78431483       5.12776923       7.05940985
Si       6.16027776       5.88561069       5.26305209
Si       2.83204656       4.01177052       4.63432913
Si       1.16793096       4.63432913       5.88561069
Si       4.49616216       5.26305209       4.01177052
Si       6.91997257       5.64697936       0.56235559
Si       3.59174137       4.25040185       9.33502562
Si       1.92762578       9.33502562       5.64697936
Si       5.25585697       0.56235559       4.25040185
24
Lattice="6.62953183686639 -2.985014609808448e-18 -2.9850146098091543e-18 3.0210793246152713e-18 10.051121572839905 -2.686996597632844e-13 3.0210793246172993e-18 2.681208201318849e-13 10.051121572839888" Properties=species:S:1:pos:R:3 unique_starting_index=95 config_type=initial n_minim_iter=13 stress="-0.0003084550589205454 -1.2473144791355007e-15 -1.9437020300489485e-15 -1.2473144791355007e-15 0.0021521738788407743 -1.2829544037835347e-15 -1.9437020300489485e-15 -1.2829544037835347e-15 0.002152173878833252" pbc="T T T"
Si       2.12382870       0.99228810       6.94051038
Si       5.43859462       9.05883347       3.11061119
Si       3.78121166       3.11061119       0.99228810
Si       0.46644574       6.94051038       9.05883347
Si       1.93755482       8.28756061       8.87463110
Si       5.25232073       1.76356096       1.17649048
Si       3.59493777       1.17649048       8.28756061
Si       0.28017186       8.87463110       1.76356096
Si       5.50529899       3.40955477       0.03718401
Si       2.19053307       6.64156680      10.01393756
Si       0.53315011      10.01393756       3.40955477
Si       3.84791603       0.03718401       6.64156680
Si       6.38972018       2.91427739       5.14719368
Si       3.07495426       7.13684418       4.90392790
Si       1.41757130       4.90392790       2.91427739
Si       4.73233722       5.14719368       7.13684418
Si       6.14856998       5.94263214       5.36416954
Si       2.83380407       4.10848943       4.68695203
Si       1.17642111       4.68695203       5.94263214
Si       4.49118702       5.36416954       4.10848943
Si       6.90772155       5.74841228       0.56586853
Si       3.59295563       4.30270929       9.48525305
Si       1.93557267       9.48525305       5.74841228
Si       5.25033859       0.56586853       4.30270929
24
Lattice="6.767470594261259 -3.1474406930612564e-18 -3.1474406930623503e-18 2.7817558781121937e-18 9.988277177487676 -3.45152811484078e-13 2.781755878115013e-18 3.4448764963313206e-13 9.988277177487655" Properties=species:S:1:pos:R:3 unique_starting_index=95 config_type=initial n_minim_iter=14 stress="0.033625789094354055 -2.766672504590569e-16 -1.0404004122760495e-15 -2.766672504590569e-16 -0.012684364117584692 5.891152227781884e-16 -1.0404004122760495e-15 5.891152227781884e-16 -0.012684364117587912" pbc="T T T"
Si       2.18412252       0.99812189       6.89684462
Si       5.56785782       8.99015529       3.09143256
Si       3.87599017       3.09143256       0.99812189
Si       0.49225487       6.89684462       8.99015529
Si       1.96828746       8.26631429       8.84263488
Si       5.35202276       1.72196289       1.14564229
Si       3.66015511       1.14564229       8.26631429
Si       0.27641981       8.84263488       1.72196289
Si       5.58577133       3.34682375       0.01172694
Si       2.20203603       6.64145343       9.97655023
Si       0.51016839       9.97655023       3.34682375
Si       3.89390368       0.01172694       6.64145343
Si       6.50118358       2.93094927       5.05153556
Si       3.11744829       7.05732791       4.93674162
Si       1.42558064       4.93674162       2.93094927
Si       4.80931593       5.05153556       7.05732791
Si       6.28686511       5.84626547       5.35356996
Si       2.90312981       4.14201171       4.63470722
Si       1.21126216       4.63470722       5.84626547
Si       4.59499746       5.35356996       4.14201171
Si       7.09012298       5.69110872       0.57729683
Si       3.70638768       4.29716846       9.41098035
Si       2.01452003       9.41098035       5.69110872
Si       5.39825533       0.57729683       4.29716846
24
Lattice="6.63718337524484 -3.2742507290411114e-18 -3.274250729042791e-18 2.495469052243158e-18 9.980480376102866 -4.623894775048141e-13 2.4954690522472308e-18 4.615695533587754e-13 9.980480376102845" Properties=species:S:1:pos:R:3 unique_starting_index=95 config_type=initial n_minim_iter=15 stress="0.02326483562806182 4.2905644244668056e-16 9.793570146180199e-16 4.2905644244668056e-16 0.017730919555532448 1.280032380645723e-15 9.793570146180199e-16 1.280032380645723e-15 0.017730919555529676" pbc="T T T"
Si       2.11183963       1.01923973       6.89967782
Si       5.43043132       8.96124065       3.08080256
Si       3.77113548       3.08080256       1.01923973
Si       0.45254379       6.89967782       8.96124065
Si       1.95639459       8.27494959       8.82626621
Si       5.27498627       1.70553079       1.15421416
Si       3.61569043       1.15421416       8.27494959
Si       0.29709874       8.82626621       1.70553079
Si       5.45101032       3.31094552      -0.03653684
Si       2.13241863       6.66953486      10.01701721
Si       0.47312279      10.01701721       3.31094552
Si       3.79171448      -0.03653684       6.66953486
Si       6.34730331       2.97329279       4.94137343
Si       3.02871162       7.00718758       5.03910694
Si       1.36941577       5.03910694       2.97329279
Si       4.68800746       4.94137343       7.00718758
Si       6.18420549       5.76450577       5.38670771
Si       2.86561380       4.21597460       4.59377267
Si       1.20631796       4.59377267       5.76450577
Si       4.52490965       5.38670771       4.21597460
Si       6.99542615       5.68136509       0.58055650
Si       3.67683447       4.29911529       9.39992387
Si       2.01753862       9.39992387       5.68136509
Si       5.33613031       0.58055650       4.29911529
24
Lattice="6.575608917908609 -3.3600510610902228e-18 -3.3600510610923613e-18 2.318363407422064e-18 9.978034709086707 -5.458996324994529e-13 2.3183634074270257e-18 5.454989286096208e-13 9.978034709086682" Properties=species:S:1:pos:R:3 unique_starting_index=95 config_type=initial n_minim_iter=16 stress="0.003593358538645457 -2.7575165593102387e-15 2.3280457136134164e-15 -2.7575165593102387e-15 0.024157642084252175 -2.032927593485521e-15 2.3280457136134164e-15 -2.032927593485521e-15 0.024157642084251783" pbc="T T T"
Si       2.07144564       1.02088776       6.91190530
Si       5.35925010       8.95714695       3.06612941
Si       3.71534787       3.06612941       1.02088776
Si       0.42754341       6.91190530       8.95714695
Si       1.93976006       8.28726098       8.82788407
Si       5.22756452       1.69077373       1.15015063
Si       3.58366229       1.15015063       8.28726098
Si       0.29585783       8.82788407       1.69077373
Si       5.38221099       3.29423947      -0.05868755
Si       2.09440654       6.68379524      10.03672226
Si       0.45050431      10.03672226       3.29423947
Si       3.73830877      -0.05868755       6.68379524
Si       6.27599451       2.99902477       4.86699291
Si       2.98819005       6.97900994       5.11104180
Si       1.34428782       5.11104180       2.99902477
Si       4.63209228       4.86699291       6.97900994
Si       6.14125012       5.69356477       5.40127840
Si       2.85344566       4.28446994       4.57675631
Si       1.20954343       4.57675631       5.69356477
Si       4.49734789       5.40127840       4.28446994
Si       6.96605104       5.67465546       0.57583506
Si       3.67824659       4.30337925       9.40219965
Si       2.03434436       9.40219965       5.67465546
Si       5.32214881       0.57583506       4.30337925
24
Lattice="6.588459327864878 -3.4630175696786673e-18 -3.4630175696813706e-18 2.1363783551101785e-18 9.96249708417871 -6.350858396526849e-13 2.136378355116025e-18 6.346796369579156e-13 9.962497084178686" Properties=species:S:1:pos:R:3 unique_starting_index=95 config_type=initial n_minim_iter=17 stress="-0.030197991263765146 1.817509198709825e-16 3.3107360462252766e-16 1.817509198709825e-16 0.016451425386626233 -1.1738681550564903e-15 3.3107360462252766e-16 -1.1738681550564903e-15 0.01645142538662204" pbc="T T T"
Si       2.06387852       1.01571999       6.92339158
Si       5.35810819       8.94677709       3.03910551
Si       3.71099336       3.03910551       1.01571999
Si       0.41676369       6.92339158       8.94677709
Si       1.92531262       8.28765653       8.82069271
Si       5.21954228       1.67484055       1.14180438
Si       3.57242745       1.14180438       8.28765653
Si       0.27819778       8.82069271       1.67484055
Si       5.36551427       3.28319321      -0.07409677
Si       2.07128461       6.67930387      10.03659385
Si       0.42416978      10.03659385       3.28319321
Si       3.71839944      -0.07409677       6.67930387
Si       6.28506015       3.02354779       4.78666269
Si       2.99083048       6.93894929       5.17583439
Si       1.34371565       5.17583439       3.02354779
Si       4.63794531       4.78666269       6.93894929
Si       6.16581612       5.61541633       5.41138470
Si       2.87158646       4.34708075       4.55111239
Si       1.22447163       4.55111239       5.61541633
Si       4.51870129       5.41138470       4.34708075
Si       7.02736769       5.66348070       0.56850367
Si       3.73313803       4.29901638       9.39399341
Si       2.08602320       9.39399341       5.66348070
Si       5.38025286       0.56850367       4.29901638
24
Lattice="6.706506382893138 -3.579297845173929e-18 -3.579297845177292e-18 1.992843173911277e-18 9.986934145563627 -7.022886678641014e-13 1.9928431739180635e-18 7.019306650002695e-13 9.986934145563602" Properties=species:S:1:pos:R:3 unique_starting_index=95 config_type=initial n_minim_iter=18 stress="-0.02654239543672312 3.2290944668180723e-16 2.788423903497487e-17 3.2290944668180723e-16 0.007550908949437203 1.196034681464458e-15 2.788423903497487e-17 1.196034681464458e-15 0.007550908949432062" pbc="T T T"
Si       2.10160343       0.96633029       6.99945810
Si       5.45485662       9.02060385       2.98747604
Si       3.77823003       2.98747604       0.96633029
Si       0.42497684       6.99945810       9.02060385
Si       1.88053974       8.33248169       8.86577545
Si       5.23379293       1.65445245       1.12115869
Si       3.55716634       1.12115869       8.33248169
Si       0.20391315       8.86577545       1.65445245
Si       5.46337896       3.30879429      -0.02852252
Si       2.11012576       6.67813986      10.01545667
Si       0.43349917      10.01545667       3.30879429
Si       3.78675236      -0.02852252       6.67813986
Si       6.44293631       3.04445304       4.75251689
Si       3.08968312       6.94248110       5.23441725
Si       1.41305653       5.23441725       3.04445304
Si       4.76630972       4.75251689       6.94248110
Si       6.28555615       5.56394302       5.43352424
Si       2.93230295       4.42299113       4.55340990
Si       1.25567636       4.55340990       5.56394302
Si       4.60892955       5.43352424       4.42299113
Si       7.17554187       5.67716065       0.54988261
Si       3.82228868       4.30977350       9.43705154
Si       2.14566208       9.43705154       5.67716065
Si       5.49891527       0.54988261       4.30977350
24
Lattice="6.73542689418612 -3.637143610084257e-18 -3.6371436100880885e-18 1.963561476552266e-18 10.090885129157035 -7.973285729120754e-13 1.963561476560331e-18 7.967577261001452e-13 10.090885129157007" Properties=species:S:1:pos:R:3 unique_starting_index=95 config_type=initial n_minim_iter=19 stress="-0.009530577626825062 6.118161377188762e-16 -3.8397350937139157e-16 6.118161377188762e-16 0.007110848297452008 2.466406569207363e-16 -3.8397350937139157e-16 2.466406569207363e-16 0.007110848297447947" pbc="T T T"
Si       2.11482130       0.98056581       7.04122408
Si       5.48253475       9.11031932       3.04966105
Si       3.79867803       3.04966105       0.98056581
Si       0.43096458       7.04122408       9.11031932
Si       1.88259358       8.39103987       8.89926011
Si       5.25030702       1.69984526       1.19162501
Si       3.56645030       1.19162501       8.39103987
Si       0.19873685       8.89926011       1.69984526
Si       5.48829298       3.30015240      -0.05183350
Si       2.12057953       6.79073273      10.14271862
Si       0.43672281      10.14271862       3.30015240
Si       3.80443626      -0.05183350       6.79073273
Si       6.43990684       3.11568913       4.74466317
Si       3.07219340       6.97519600       5.34622196
Si       1.38833667       5.34622196       3.11568913
Si       4.75605012       4.74466317       6.97519600
Si       6.33564728       5.58630328       5.50390054
Si       2.96793384       4.50458185       4.58698459
Si       1.28407711       4.58698459       5.58630328
Si       4.65179056       5.50390054       4.50458185
Si       7.21485875       5.77625949       0.55021374
Si       3.84714530       4.31462564       9.54067139
Si       2.16328858       9.54067139       5.77625949
Si       5.53100203       0.55021374       4.31462564
24
Lattice="6.775844405474986 -3.6427454439682784e-18 -3.642745443972491e-18 2.046024765614822e-18 10.22313570153019 -9.61258604477917e-13 2.0460247656252395e-18 9.606610651397216e-13 10.223135701530163" Properties=species:S:1:pos:R:3 unique_starting_index=95 config_type=initial n_minim_iter=20 stress="0.06638933281493738 -2.9936306492584167e-15 -1.2404087822431315e-15 -2.9936306492584167e-15 0.03577304527544269 -1.4858410305497066e-15 -1.2404087822431315e-15 -1.4858410305497066e-15 0.03577304527543597" pbc="T T T"
Si       2.11877425       0.99383051       7.11702885
Si       5.50669645       9.22930519       3.10610685
Si       3.81273535       3.10610685       0.99383051
Si       0.42481315       7.11702885       9.22930519
Si       1.86667120       8.50558345       8.99322457
Si       5.25459340       1.71755225       1.22991113
Si       3.56063230       1.22991113       8.50558345
Si       0.17271010       8.99322457       1.71755225
Si       5.51049368       3.26748157      -0.07189426
Si       2.12257148       6.95565413      10.29502996
Si       0.42861038      10.29502996       3.26748157
Si       3.81653258      -0.07189426       6.95565413
Si       6.45020784       3.21967188       4.70693372
Si       3.06228563       7.00346382       5.51620198
Si       1.36832453       5.51620198       3.21967188
Si       4.75624674       4.70693372       7.00346382
Si       6.40751827       5.57601329       5.60184881
Si       3.01959606       4.64712241       4.62128689
Si       1.32563496       4.62128689       5.57601329
Si       4.71355716       5.60184881       4.64712241
Si       7.29933389       5.89112653       0.56212811
Si       3.91141169       4.33200917       9.66100759
Si       2.21745059       9.66100759       5.89112653
Si       5.60537279       0.56212811       4.33200917
24
Lattice="6.813073401951776 -3.566268990219179e-18 -3.566268990223293e-18 2.283644833000835e-18 10.379844766293973 -1.152758303087487e-12 2.2836448330145575e-18 1.1522774753879909e-12 10.379844766293951" Properties=species:S:1:pos:R:3 unique_starting_index=95 config_type=initial n_minim_iter=21 stress="0.09019015155271183 -1.6210604026606096e-15 -5.968188420319804e-16 -1.6210604026606096e-15 0.049448574651876305 -7.542664889035697e-16 -5.968188420319804e-16 -7.542664889035697e-16 0.049448574651872704" pbc="T T T"
Si       2.11330210       0.98817635       7.23924531
Si       5.51983880       9.39166842       3.14059945
Si       3.81657045       3.14059945       0.98817635
Si       0.41003375       7.23924531       9.39166842
Si       1.82999540       8.65292397       9.12220958
Si       5.23653210       1.72692080       1.25763519
Si       3.53326375       1.25763519       8.65292397
Si       0.12672705       9.12220958       1.72692080
Si       5.53037897       3.24467148      -0.06677418
Si       2.12384227       7.13517328      10.44661895
Si       0.42057392      10.44661895       3.24467148
Si       3.82711062      -0.06677418       7.13517328
Si       6.47141803       3.33176607       4.67451271
Si       3.06488133       7.04807870       5.70533206
Si       1.36161298       5.70533206       3.33176607
Si       4.76814968       4.67451271       7.04807870
Si       6.48257158       5.56439497       5.71160541
Si       3.07603488       4.81544979       4.66823936
Si       1.37276653       4.66823936       5.56439497
Si       4.77930323       5.71160541       4.81544979
Si       7.38825759       6.03293545       0.57368831
Si       3.98172089       4.34690932       9.80615645
Si       2.27845254       9.80615645       6.03293545
Si       5.68498924       0.57368831       4.34690932
