8
Lattice="3.421207743064843 0.15494518881518632 0.27645771011987436 0.18446944136994603 6.689274960928319 -0.20650026773202965 -0.2362274474938749 -1.3942152723582217 9.667309547200748" Properties=species:S:1:pos:R:3 unique_starting_index=25 config_type=initial n_minim_iter=6 energy=-1314.1599995051356 free_energy=-1314.1599995051356 pbc="T T T"
Si       1.22325857       6.19021360       3.91859873
Si       2.14619117      -0.74020872       5.81866826
Si       1.99049621       0.71545572       7.07662445
Si       1.37895353       4.73454915       2.66064254
Si       0.15711781       6.20623470       2.15215119
Si       3.21233193      -0.75622983       7.58511580
Si       1.07615133       5.67481548       8.81448482
Si       2.29329841      -0.22481060       0.92278217
