16
Lattice="5.327565947281321 1.024020672429319 1.32005321864187 5.997163126485214 12.713816914429058 -2.482430071290637 2.4895502753254597 2.857879517361732 11.492184461434034" Properties=species:S:1:pos:R:3 unique_starting_index=65 config_type=initial n_minim_iter=1 energy=-2762.566311133702 free_energy=-2762.566311133702 pbc="T T T"
Si       9.95923797      11.97287754       3.10554734
Si       8.97971702      11.81228928       2.86066264
Si       8.01283716      13.12557809       7.97678934
Si       9.35973826      12.79820941       5.60155851
Si       3.63849918       4.56648077       2.17197732
Si       3.67551865       5.44400007       1.33953110
Si       9.35096012      12.85614364       2.77486313
Si       6.30735053       5.79441666       2.25650738
Si       2.07263213      -0.16109822       7.76803633
Si       8.84329471      11.75761783       5.63241554
Si       3.97108699       4.30137294       1.03849088
Si       2.59344691       0.86794765       7.72648029
Si      -0.66407852      -1.54624163       1.59631461
Si       6.54087660       4.74978200       2.12525847
Si       9.53786327      12.00504166       0.15459433
Si      10.22128196      11.06926235       0.51332540
16
Lattice="5.326682419098971 1.0237924866351018 1.320030360588783 5.99564744902033 12.713951087405116 -2.4825857890899994 2.4889073666324064 2.857829006058247 11.492459040347619" Properties=species:S:1:pos:R:3 unique_starting_index=65 config_type=initial n_minim_iter=2 stress="-0.0008962344226496384 -0.00015357352085002807 -0.00037571802942503173 -0.00015357352085002807 -9.67280668572028e-05 5.3087746069448356e-05 -0.00037571802942503173 5.3087746069448356e-05 0.0002912868224002121" pbc="T T T"
Si       9.95707195      11.97280596       3.10549228
Si       8.97770543      11.81224116       2.86064681
Si       8.01085823      13.12562165       7.97689411
Si       9.35757686      12.79816864       5.60156182
Si       3.63768982       4.56643401       2.17206574
Si       3.67467531       5.44398545       1.33950238
Si       9.34887045      12.85604124       2.77477148
Si       6.30602488       5.79436025       2.25644012
Si       2.07232176      -0.16122486       7.76821551
Si       8.84132405      11.75759589       5.63244989
Si       3.97022667       4.30133786       1.03844047
Si       2.59294831       0.86783106       7.72671452
Si      -0.66390394      -1.54622706       1.59638573
Si       6.53958064       4.74955862       2.12521846
Si       9.53581106      12.00495394       0.15447053
Si      10.21923977      11.06911748       0.51321257
16
Lattice="5.326789257990634 1.0235589176198667 1.3207026067896275 5.994457609184453 12.71539748250714 -2.481934160754956 2.4904151508039645 2.8577118422797714 11.492013001171715" Properties=species:S:1:pos:R:3 unique_starting_index=65 config_type=initial n_minim_iter=3 stress="-0.0010509987904577728 -7.730147695963155e-05 0.0007160801171927487 -7.730147695963155e-05 0.00015704555455569807 -0.0004282584808045633 0.0007160801171927487 -0.0004282584808045633 -0.0024469093464182033" pbc="T T T"
Si       9.95667524      11.97382708       3.10636345
Si       8.97722511      11.81321444       2.86154159
Si       8.01108014      13.12674442       7.97718227
Si       9.35739737      12.79918216       5.60209801
Si       3.63768116       4.56669551       2.17265610
Si       3.67452077       5.44439248       1.33973052
Si       9.34844927      12.85685953       2.77541200
Si       6.30576091       5.79494467       2.25683267
Si       2.07382179      -0.16163578       7.76801260
Si       8.84147550      11.75860762       5.63304694
Si       3.96996090       4.30173528       1.03871487
Si       2.59413118       0.86754710       7.72682129
Si      -0.66349547      -1.54628163       1.59630834
Si       6.53940618       4.74950838       2.12583179
Si       9.53503748      12.00590781       0.15549495
Si      10.21890297      11.06992855       0.51437662
16
Lattice="5.3272639574347895 1.0234272058014018 1.3212616908589208 5.994182032367448 12.716416202020671 -2.4817755559613714 2.4912652474514183 2.8579871391190976 11.493845967625989" Properties=species:S:1:pos:R:3 unique_starting_index=65 config_type=initial n_minim_iter=4 stress="-5.293146213637536e-06 -0.00013581986957778803 0.0003640831261341567 -0.00013581986957778803 0.0007078304193430642 5.6943755909455574e-05 0.0003640831261341567 5.6943755909455574e-05 0.0003876424197765803" pbc="T T T"
Si       9.95708455      11.97471494       3.10754703
Si       8.97748634      11.81403969       2.86275460
Si       8.01157354      13.12785898       7.97898434
Si       9.35779684      12.80013561       5.60355155
Si       3.63787915       4.56695302       2.17354482
Si       3.67465821       5.44473227       1.34016090
Si       9.34881072      12.85753715       2.77640333
Si       6.30597730       5.79548639       2.25743272
Si       2.07483549      -0.16170243       7.76924956
Si       8.84211150      11.75957029       5.63456259
Si       3.97003226       4.30208385       1.03906600
Si       2.59492412       0.86758022       7.72832003
Si      -0.66329920      -1.54624932       1.59653305
Si       6.53971369       4.74952155       2.12655748
Si       9.53526223      12.00662357       0.15626006
Si      10.21954521      11.07055977       0.51526029
16
Lattice="5.32760773707409 1.023265068006923 1.3204159960547102 5.995482925522481 12.71292410746034 -2.4827262195331903 2.4899834142976713 2.8569846779616697 11.492731768099514" Properties=species:S:1:pos:R:3 unique_starting_index=65 config_type=initial n_minim_iter=5 stress="4.083894361523393e-05 9.029652445161741e-06 3.7747027552913785e-06 9.029652445161741e-06 -0.0003143355855342135 5.8632043627440585e-05 3.7747027552913785e-06 5.8632043627440585e-05 2.9869824468931025e-05" pbc="T T T"
Si       9.95788576      11.97154768       3.10563267
Si       8.97817015      11.81073277       2.86116732
Si       8.01153229      13.12416373       7.97709643
Si       9.35812390      12.79659558       5.60148461
Si       3.63793521       4.56558564       2.17313182
Si       3.67495495       5.44311157       1.33939073
Si       9.34970335      12.85372132       2.77456452
Si       6.30627339       5.79409954       2.25600797
Si       2.07430772      -0.16177083       7.76854191
Si       8.84261425      11.75640792       5.63277495
Si       3.97020155       4.30102859       1.03824211
Si       2.59426663       0.86724665       7.72768590
Si      -0.66354092      -1.54566940       1.59654224
Si       6.53997228       4.74817393       2.12537582
Si       9.53654546      12.00324732       0.15471984
Si      10.22114374      11.06763654       0.51363732
16
Lattice="5.327731290751911 1.0234970264238485 1.3191561228733988 5.996630895194201 12.71706520189862 -2.4854070621919027 2.4880355740826525 2.8562795702049084 11.49090691698681" Properties=species:S:1:pos:R:3 unique_starting_index=65 config_type=initial n_minim_iter=6 stress="0.00017025784778746801 0.00011552644299245455 -0.00045137705931082945 0.00011552644299245455 0.0005369392522382284 -0.0003027332875769719 -0.00045137705931082945 -0.0003027332875769719 -0.00016418407282357697" pbc="T T T"
Si       9.95811783      11.97485278       3.10171132
Si       8.97838668      11.81347565       2.85750426
Si       8.01083123      13.12716261       7.97304949
Si       9.35789703      12.79991233       5.59734188
Si       3.63742337       4.56650200       2.17203250
Si       3.67478779       5.44433812       1.33774965
Si       9.34998029      12.85714813       2.77099105
Si       6.30637058       5.79565079       2.25320867
Si       2.07346455      -0.16285043       7.76767127
Si       8.84264871      11.75919832       5.62915267
Si       3.96977894       4.30234309       1.03661421
Si       2.59330818       0.86674426       7.72659012
Si      -0.66381749      -1.54597431       1.59657479
Si       6.53968970       4.74950736       2.12336238
Si       9.53763752      12.00642817       0.15139312
Si      10.22268670      11.07116976       0.51036295
16
Lattice="5.3275073435822415 1.0230149869561227 1.320500310185226 5.994460575710963 12.714338793559774 -2.482720838371962 2.489975350215562 2.8571005917849708 11.492677665083127" Properties=species:S:1:pos:R:3 unique_starting_index=65 config_type=initial n_minim_iter=7 stress="-0.00012987135317202127 0.0002006901352629835 9.975095300477805e-05 0.0002006901352629835 2.1032802334891093e-05 0.0001028632412615847 9.975095300477805e-05 0.0001028632412615847 5.624989379730236e-05" pbc="T T T"
Si       9.95671303      11.97268185       3.10545191
Si       8.97715391      11.81046372       2.86084570
Si       8.01074451      13.12574935       7.97695467
Si       9.35713220      12.79818834       5.60132472
Si       3.63644781       4.56550861       2.17404103
Si       3.67371830       5.44293614       1.33922808
Si       9.34841765      12.85458355       2.77519756
Si       6.30579103       5.79447920       2.25434178
Si       2.07575331      -0.16197863       7.76880919
Si       8.84256606      11.75731466       5.63315661
Si       3.96820436       4.30165641       1.03779417
Si       2.59510908       0.86782210       7.72801617
Si      -0.66321853      -1.54480488       1.59616809
Si       6.53841691       4.74876265       2.12567344
Si       9.53621910      12.00293630       0.15511655
Si      10.22223040      11.06903946       0.51429710
16
Lattice="5.328077249799311 1.0200109955898404 1.3201134990227006 5.989414503342125 12.709562703319584 -2.4842662651506924 2.488602319706999 2.8541074637859603 11.491744668659688" Properties=species:S:1:pos:R:3 unique_starting_index=65 config_type=initial n_minim_iter=8 stress="0.00022156524840623212 -0.0005458186137788664 -4.3020524332924995e-06 -0.0005458186137788664 -9.694907387086373e-05 -0.00010714285348747126 -4.3020524332924995e-06 -0.00010714285348747126 -4.289932840875873e-05" pbc="T T T"
Si       9.95259001      11.96555739       3.10367942
Si       8.97316620      11.80307806       2.85917585
Si       8.00590621      13.11889418       7.97494046
Si       9.35278321      12.79096384       5.59939965
Si       3.63416519       4.56254746       2.17316706
Si       3.67120671       5.43975620       1.33849181
Si       9.34367747      12.84726173       2.77323193
Si       6.30369385       5.79020729       2.25226324
Si       2.07643886      -0.16377298       7.76842283
Si       8.83883125      11.75017124       5.63139581
Si       3.96597008       4.29892960       1.03708036
Si       2.59516948       0.86605215       7.72734933
Si      -0.66265543      -1.54359004       1.59617880
Si       6.53633137       4.74442785       2.12509139
Si       9.53243428      11.99540268       0.15362749
Si      10.22002302      11.06229174       0.51284348
16
Lattice="5.327945683934956 1.020302978993394 1.3196396586773445 5.990611159261232 12.708139476814603 -2.4848862196334203 2.4878547178241925 2.853729954445829 11.491313571321381" Properties=species:S:1:pos:R:3 unique_starting_index=65 config_type=initial n_minim_iter=9 stress="-9.041212238057747e-05 0.00012550808284776481 4.8143246998562516e-05 0.00012550808284776481 -4.7764163744124954e-05 -0.00012512347442736812 4.8143246998562516e-05 -0.00012512347442736812 6.152834937141839e-05" pbc="T T T"
Si       9.95311056      11.96522272       3.10306659
Si       8.97429999      11.80024994       2.85881470
Si       8.00767512      13.11782598       7.97431881
Si       9.35424310      12.79051463       5.59885456
Si       3.63251100       4.56179035       2.17190967
Si       3.67032980       5.43865872       1.33840889
Si       9.34452718      12.84542593       2.77185295
Si       6.30261919       5.79027008       2.24890570
Si       2.07687933      -0.16380415       7.76817939
Si       8.84023305      11.74862201       5.63075232
Si       3.96394794       4.29859906       1.03667316
Si       2.59541882       0.86731747       7.72656416
Si      -0.66299550      -1.54095294       1.59622504
Si       6.53345164       4.74367908       2.12543809
Si       9.53385281      11.99223262       0.15310797
Si      10.22364579      11.06188112       0.51234432
16
Lattice="5.328415361495964 1.019131052067052 1.3186070250332182 5.988403556023941 12.705377703492058 -2.4810456364865323 2.485278776483206 2.8568439601633733 11.488652720068714" Properties=species:S:1:pos:R:3 unique_starting_index=65 config_type=initial n_minim_iter=10 stress="0.00010211992604046517 -0.00011748752833438303 -0.0002321913502348294 -0.00011748752833438303 0.0002246332492948917 0.0007106738993061642 -0.0002321913502348294 0.0007106738993061642 -0.00044474738347286685" pbc="T T T"
Si       9.95179677      11.96392541       3.10451993
Si       8.97245146      11.79715326       2.86055153
Si       8.00528794      13.11829713       7.97512672
Si       9.35167482      12.79018942       5.60018257
Si       3.62953654       4.56102501       2.17134599
Si       3.66759031       5.43823801       1.33910828
Si       9.34197717      12.84321446       2.77362730
Si       6.30070752       5.78952044       2.24702901
Si       2.07692452      -0.16175561       7.76591242
Si       8.83793313      11.74794991       5.63181878
Si       3.96122123       4.29714036       1.03654330
Si       2.59497568       0.86926082       7.72405618
Si      -0.66297066      -1.53821016       1.59551114
Si       6.53068152       4.74153250       2.12660909
Si       9.53224127      11.98756715       0.15539527
Si      10.22441500      11.05899781       0.51464265
16
Lattice="5.328706407337834 1.0172844652105748 1.3186716133119036 5.986262787619803 12.701917241396078 -2.486305563951762 2.485522915193461 2.8509186978406276 11.489377264277858" Properties=species:S:1:pos:R:3 unique_starting_index=65 config_type=initial n_minim_iter=11 stress="-5.053221756086227e-05 -1.1711087621141195e-05 7.377635596946645e-05 -1.1711087621141195e-05 -0.00016676251982646265 -0.00024990949703451216 7.377635596946645e-05 -0.00024990949703451216 9.956839263355637e-05" pbc="T T T"
Si       9.95144392      11.95851933       3.10088250
Si       8.97188138      11.79002781       2.85695773
Si       8.00538720      13.11043562       7.97178291
Si       9.35085093      12.78343522       5.59656490
Si       3.62699679       4.55779582       2.16922573
Si       3.66507874       5.43603904       1.33697949
Si       9.34043751      12.83666632       2.76923139
Si       6.29914656       5.78609934       2.24319304
Si       2.07869680      -0.16527019       7.76755865
Si       8.83725055      11.74125817       5.62886267
Si       3.95853732       4.29417827       1.03438276
Si       2.59634438       0.86526358       7.72471577
Si      -0.66265254      -1.53635785       1.59627904
Si       6.52796783       4.73729690       2.12705265
Si       9.53095519      11.98066155       0.15084164
Si      10.22537799      11.05411397       0.51162384
16
Lattice="5.329313411876055 1.0166552457585774 1.318078494604015 5.985259826732175 12.702155009943686 -2.4846292979371647 2.484243763448155 2.8525973867788283 11.48785646074886" Properties=species:S:1:pos:R:3 unique_starting_index=65 config_type=initial n_minim_iter=12 stress="2.7316922625729408e-05 -3.164313469329681e-05 -1.594548285366593e-05 -3.164313469329681e-05 3.017129317221461e-05 4.606171305842307e-05 -1.594548285366593e-05 4.606171305842307e-05 -4.6278218471142523e-05" pbc="T T T"
Si       9.95126347      11.96005005       3.10142590
Si       8.97302182      11.78981165       2.85786655
Si       8.00493096      13.11248772       7.97284657
Si       9.35061218      12.78488640       5.59665081
Si       3.62446075       4.55770090       2.16855608
Si       3.66257934       5.43682649       1.33661466
Si       9.33968285      12.83676324       2.76999133
Si       6.29749754       5.78571793       2.24067472
Si       2.07935284      -0.16467153       7.76633055
Si       8.83688537      11.74265724       5.62919220
Si       3.95594851       4.29366247       1.03335814
Si       2.59692321       0.86591696       7.72350462
Si      -0.66275041      -1.53464468       1.59554152
Si       6.52496089       4.73614271       2.12897502
Si       9.53103037      11.97862273       0.15154764
Si      10.22745535      11.05422467       0.51280747
16
Lattice="5.329712851597951 1.0160986614242455 1.317665882344589 5.98415916261265 12.703761083793937 -2.4842030403406143 2.4833206363988354 2.8533825690042693 11.486929176517084" Properties=species:S:1:pos:R:3 unique_starting_index=65 config_type=initial n_minim_iter=13 stress="4.288588906044909e-05 -7.184817435954576e-05 1.3324973014686279e-05 -7.184817435954576e-05 9.642769019369956e-05 -1.8693823896640198e-05 1.3324973014686279e-05 -1.8693823896640198e-05 2.427224266924695e-05" pbc="T T T"
Si       9.95194930      11.96304721       3.10152365
Si       8.97463107      11.79053899       2.85814742
Si       8.00517806      13.11460827       7.97177891
Si       9.35109023      12.78682762       5.59658776
Si       3.62137823       4.55785449       2.16755762
Si       3.65927807       5.43745305       1.33536374
Si       9.33925370      12.83813797       2.76942742
Si       6.29470714       5.78495460       2.23678697
Si       2.08023569      -0.16491991       7.76597614
Si       8.83713048      11.74508233       5.62940451
Si       3.95222776       4.29407045       1.03180339
Si       2.59803239       0.86586119       7.72354400
Si      -0.66294677      -1.53344965       1.59519659
Si       6.52026440       4.73481754       2.13187581
Si       9.53134003      11.97754061       0.15209961
Si      10.22979992      11.05589390       0.51367873
16
Lattice="5.329558710358577 1.0164997236812012 1.3168903858897745 5.984552823484697 12.705583007034612 -2.4825843205614815 2.4817033007089355 2.8557984023370135 11.485408704602715" Properties=species:S:1:pos:R:3 unique_starting_index=65 config_type=initial n_minim_iter=14 stress="-7.531872442536621e-06 -6.447797147820158e-05 -9.932136021395491e-06 -6.447797147820158e-05 0.00012556423266452837 2.1957161424693633e-05 -9.932136021395491e-06 2.1957161424693633e-05 2.6518513575817835e-05" pbc="T T T"
Si       9.95482172      11.96812337       3.10253235
Si       8.97631225      11.79252829       2.85950971
Si       8.00550614      13.11846262       7.97242020
Si       9.35307298      12.79035317       5.59709767
Si       3.61730611       4.55858791       2.16628234
Si       3.65496622       5.43763302       1.33396210
Si       9.33982252      12.84175859       2.76972350
Si       6.29126268       5.78523545       2.23152842
Si       2.08063267      -0.16381128       7.76434662
Si       8.83870418      11.74928270       5.62999378
Si       3.94708975       4.29574327       1.03048882
Si       2.59900245       0.86682415       7.72284321
Si      -0.66278863      -1.53223821       1.59426697
Si       6.51457742       4.73365382       2.13570755
Si       9.53277750      11.97771358       0.15311432
Si      10.23338727      11.05892178       0.51478124
16
Lattice="5.3293994719990065 1.018232114576169 1.3156638578008282 5.987930478546409 12.708693028597983 -2.480360405788842 2.479707555316289 2.8596834966751685 11.483221742551045" Properties=species:S:1:pos:R:3 unique_starting_index=65 config_type=initial n_minim_iter=15 stress="-3.998417201467836e-05 -5.340777288081005e-05 -3.076242655964203e-05 -5.340777288081005e-05 0.000155551112340432 6.455857985941594e-06 -3.076242655964203e-05 6.455857985941594e-06 2.4099378829932987e-05" pbc="T T T"
Si       9.95994171      11.97642566       3.10231269
Si       8.98294107      11.79740980       2.86112061
Si       8.00829407      13.12431217       7.97259334
Si       9.35880898      12.79687553       5.59874833
Si       3.61125237       4.55973389       2.16466690
Si       3.64864314       5.43815536       1.33203020
Si       9.34369728      12.84781916       2.77020944
Si       6.28740162       5.78706252       2.22261383
Si       2.08114486      -0.16081436       7.76215416
Si       8.84396792      11.75588323       5.63107251
Si       3.94012616       4.29846521       1.02920780
Si       2.60052370       0.86883921       7.72122721
Si      -0.66128061      -1.53011841       1.59364810
Si       6.50788518       4.73274031       2.14096403
Si       9.53648296      11.98110876       0.15421274
Si      10.24029387      11.06395287       0.51702788
16
Lattice="5.328444458217514 1.0241683702736295 1.3129627498199568 5.998322726125625 12.718209170213566 -2.4717696188569183 2.475512828656913 2.8725277922059025 11.477722552253638" Properties=species:S:1:pos:R:3 unique_starting_index=65 config_type=initial n_minim_iter=16 stress="-0.00027424445427724916 -6.001870281007981e-05 -0.00011413728506964348 -6.001870281007981e-05 0.00026840585120456434 0.0002111041355422677 -0.00011413728506964348 0.0002111041355422677 -0.0001297971736204854" pbc="T T T"
Si       9.97498928      11.99938116       3.10780141
Si       8.99887916      11.81286021       2.86676732
Si       8.01776913      13.14306947       7.97597443
Si       9.37405288      12.81662759       5.60524716
Si       3.59661939       4.56308509       2.16446340
Si       3.63308190       5.44500624       1.33003648
Si       9.35517416      12.86755416       2.77386529
Si       6.27564627       5.79154181       2.19845333
Si       2.08457886      -0.15072895       7.75783742
Si       8.85906429      11.77585432       5.63537194
Si       3.92690487       4.30262064       1.02796097
Si       2.60458295       0.87728597       7.71603747
Si      -0.65707375      -1.52628232       1.59186371
Si       6.48940119       4.73506024       2.15326823
Si       9.54916244      11.99626114       0.15957324
Si      10.25630512      11.07977390       0.52331694
16
Lattice="5.328835359890906 1.027447516296075 1.3119753667034968 6.004887515148137 12.726055878649849 -2.469136138296704 2.4746096659636443 2.878102576279637 11.476283480925423" Properties=species:S:1:pos:R:3 unique_starting_index=65 config_type=initial n_minim_iter=17 stress="-0.00030993823198691996 -8.625942886512008e-05 -0.0001349507285452829 -8.625942886512008e-05 0.0004892993516397331 0.00018020094219710142 -0.0001349507285452829 0.00018020094219710142 -0.00022767621506887577" pbc="T T T"
Si       9.98594273      12.01326502       3.10971716
Si       9.01022580      11.82418254       2.86936681
Si       8.02762899      13.15565408       7.97801372
Si       9.38443601      12.82851673       5.60749628
Si       3.58677570       4.56532076       2.16236455
Si       3.62122750       5.44839936       1.32872222
Si       9.36425201      12.87839863       2.77444427
Si       6.27000181       5.79576200       2.18266684
Si       2.08969657      -0.14721388       7.75771361
Si       8.86968293      11.78757699       5.63803488
Si       3.91763979       4.30443762       1.02753926
Si       2.60867454       0.88250212       7.71544348
Si      -0.65527455      -1.52696254       1.59205019
Si       6.47990968       4.73565703       2.16182910
Si       9.56090092      12.00787642       0.16158766
Si      10.26594413      11.09268903       0.52522518
16
Lattice="5.328473376338697 1.0286233601844412 1.3124505597301928 6.006309542404199 12.732794000505471 -2.4713155687482087 2.4756656209476917 2.877811097006236 11.478247841668267" Properties=species:S:1:pos:R:3 unique_starting_index=65 config_type=initial n_minim_iter=18 stress="-0.00030653961184565865 -0.00012573496322972858 -9.578256630482926e-05 -0.00012573496322972858 0.0005876676466218774 2.5939147645794672e-05 -9.578256630482926e-05 2.5939147645794672e-05 -0.00023285567794826254" pbc="T T T"
Si       9.99139940      12.02009714       3.10939085
Si       9.01568880      11.83135526       2.87053665
Si       8.03654431      13.16374035       7.97837209
Si       9.38874795      12.83471349       5.60597191
Si       3.57908772       4.56665618       2.15899381
Si       3.61154862       5.44853818       1.32695307
Si       9.36851819      12.88467420       2.77616547
Si       6.26258159       5.79643202       2.17066990
Si       2.09655709      -0.14727905       7.76050704
Si       8.87588664      11.79283458       5.63941455
Si       3.90895376       4.30558929       1.02688308
Si       2.61332728       0.88325991       7.71824303
Si      -0.65043037      -1.52914603       1.59401928
Si       6.46913956       4.73556213       2.16969591
Si       9.56580464      12.01779309       0.15988518
Si      10.26810911      11.10075185       0.52439442
16
Lattice="5.327712236415616 1.0285244602697436 1.3134688633280867 6.00524421743154 12.733768404421832 -2.4740973990155437 2.4775173639390347 2.8748340983936296 11.480299439092928" Properties=species:S:1:pos:R:3 unique_starting_index=65 config_type=initial n_minim_iter=19 stress="-0.0003118744224611156 -0.00011844547143227493 -6.11557240874441e-05 -0.00011844547143227493 0.0005108188324514411 -4.549044735948366e-05 -6.11557240874441e-05 -4.549044735948366e-05 -0.00022622386997727143" pbc="T T T"
Si       9.99419197      12.01896704       3.10806137
Si       9.01793012      11.83076346       2.86919927
Si       8.04233848      13.16475300       7.98011531
Si       9.39101244      12.83379560       5.60488732
Si       3.57205713       4.56532020       2.15687664
Si       3.60392743       5.44645139       1.32459433
Si       9.37134910      12.88423849       2.77484310
Si       6.25633395       5.79392590       2.16257818
Si       2.10177723      -0.14832192       7.76433288
Si       8.87973795      11.79136200       5.64000916
Si       3.90109472       4.30453984       1.02499750
Si       2.61738394       0.88291318       7.72175101
Si      -0.64542404      -1.53030749       1.59670775
Si       6.45934077       4.73387451       2.17678563
Si       9.56730183      12.02174222       0.15950624
Si      10.26700102      11.10189126       0.52294713
16
Lattice="5.32763692507869 1.0266566474496055 1.3151006610959657 6.0023899573435955 12.726133884525742 -2.478055833077762 2.4805571893743483 2.868124452356018 11.483256434449551" Properties=species:S:1:pos:R:3 unique_starting_index=65 config_type=initial n_minim_iter=20 stress="-0.0002720596604604509 -9.621478687957948e-05 -7.423090253343422e-05 -9.621478687957948e-05 0.00045524880884076997 -8.78766541370373e-05 -7.423090253343422e-05 -8.78766541370373e-05 -0.0001588146401536884" pbc="T T T"
Si       9.99707933      12.00871215       3.10905814
Si       9.02140700      11.82056719       2.87002086
Si       8.04975446      13.15499936       7.98015940
Si       9.39641148      12.82316279       5.60484639
Si       3.55873751       4.55877750       2.15491477
Si       3.59166952       5.44043485       1.32010753
Si       9.37522861      12.87427418       2.77511143
Si       6.24756869       5.78680535       2.14994917
Si       2.10962110      -0.15080010       7.76975149
Si       8.88618990      11.78100485       5.63987831
Si       3.88784680       4.29889266       1.02038545
Si       2.62503249       0.88148927       7.72595750
Si      -0.63761425      -1.52962650       1.59925394
Si       6.44390614       4.72539224       2.18868957
Si       9.57109446      12.01735486       0.15917202
Si      10.26761443      11.09409532       0.51990141
16
Lattice="5.328273849259385 1.0224074713699907 1.3168170283365426 5.995452194757009 12.715838551313174 -2.4833285361496635 2.4832914353825264 2.858981926057774 11.486257896983684" Properties=species:S:1:pos:R:3 unique_starting_index=65 config_type=initial n_minim_iter=21 stress="-0.00028525157820157157 -0.00011348398566705396 -7.874839611150888e-05 -0.00011348398566705396 0.000619577633283187 -0.00015859571499965666 -7.874839611150888e-05 -0.00015859571499965666 -6.875016142270022e-05" pbc="T T T"
Si       9.99895124      11.99430860       3.10661848
Si       9.02244953      11.80610867       2.86883444
Si       8.05204244      13.13959420       7.97971056
Si       9.39982482      12.80940449       5.60525240
Si       3.54330786       4.55052921       2.15184033
Si       3.57800015       5.43318050       1.31607145
Si       9.37608722      12.85978709       2.77552103
Si       6.23582576       5.77638626       2.13466200
Si       2.11866298      -0.15546972       7.77469813
Si       8.88952072      11.76644694       5.63937666
Si       3.87326764       4.29108814       1.01642023
Si       2.63446468       0.87699465       7.73016358
Si      -0.62973597      -1.52844415       1.60201537
Si       6.42494746       4.71267236       2.20012197
Si       9.57376254      12.00737924       0.15782518
Si      10.26707939      11.08232993       0.51783280
