8
Lattice="5.324306057232744 0.0 0.0 0.0 7.889684351925279 -2.336754272946946e-16 0.0 1.5638361543353732e-16 5.280047533742085" Properties=species:S:1:pos:R:3 unique_starting_index=2 config_type=initial n_minim_iter=1 energy=-1300.6915115468655 free_energy=-1300.6915115468655 pbc="T T T"
Si       2.61917695       2.66963062       3.64790798
Si       2.70512911       2.66963062       1.63213956
Si       3.66612122       5.39134427       2.59009914
Si       1.65818484       5.39134427       2.68994839
Si       5.36728214       5.22005374       1.00788421
Si      -0.04297608       5.22005374       4.27216332
Si       4.32033787       2.49834008       5.23012291
Si       1.00396819       2.49834008       0.04992462
8
Lattice="5.321073400084403 0.0 0.0 0.0 7.8881561791385355 -2.33599893133845e-16 0.0 1.5633833563600394e-16 5.27783053373692" Properties=species:S:1:pos:R:3 unique_starting_index=2 config_type=initial n_minim_iter=2 stress="0.00048524057574118564 -7.517462963561351e-18 1.6074841637082025e-16 -7.517462963561351e-18 0.0011488437197765015 2.4431754631574392e-17 1.6074841637082025e-16 2.4431754631574392e-17 0.0018438861255416746" pbc="T T T"
Si       2.61761132       2.66913753       3.64636838
Si       2.70346208       2.66913753       1.63146215
Si       3.66382592       5.39032099       2.58907008
Si       1.65724748       5.39032099       2.68876046
Si       5.36399878       5.21901864       1.00745312
Si      -0.04292538       5.21901864       4.27037742
Si       4.31778418       2.49783519       5.22798534
Si       1.00328922       2.49783519       0.04984519
8
Lattice="5.321920564143758 0.0 0.0 0.0 7.884760906524036 -2.33420024740175e-16 0.0 1.5629448991528199e-16 5.2745582277472485" Properties=species:S:1:pos:R:3 unique_starting_index=2 config_type=initial n_minim_iter=3 stress="0.002123942153091506 4.263695174980028e-17 3.414718223961946e-16 4.263695174980028e-17 0.00011895013462718271 2.4234090957790897e-17 3.414718223961946e-16 2.4234090957790897e-17 -0.0009229911821950069" pbc="T T T"
Si       2.61813511       2.66808114       3.64420526
Si       2.70378545       2.66808114       1.63035297
Si       3.66462249       5.38813452       2.58771253
Si       1.65729808       5.38813452       2.68684570
Si       5.36474574       5.21667977       1.00692614
Si      -0.04282517       5.21667977       4.26763208
Si       4.31825836       2.49662639       5.22499164
Si       1.00366221       2.49662639       0.04956658
8
Lattice="5.318987173444385 0.0 0.0 0.0 7.874795746683645 -2.3312879941135537e-16 0.0 1.5629856758033736e-16 5.274783738028346" Properties=species:S:1:pos:R:3 unique_starting_index=2 config_type=initial n_minim_iter=4 stress="-0.0001251440221402282 5.3767656492124005e-17 1.1984659881655677e-16 5.3767656492124005e-17 -0.0021169037822002072 8.88485398459222e-17 1.1984659881655677e-16 8.88485398459222e-17 0.0007481093580694776" pbc="T T T"
Si       2.61735320       2.66526356       3.64550700
Si       2.70163397       2.66526356       1.62927673
Si       3.66317069       5.38221951       2.58942564
Si       1.65581648       5.38221951       2.68535810
Si       5.36112756       5.20953218       1.00811514
Si      -0.04214038       5.20953218       4.26666860
Si       4.31531007       2.49257624       5.22681751
Si       1.00367710       2.49257624       0.04796623
8
Lattice="5.315954672971131 0.0 0.0 0.0 7.89631651009259 -2.3350044686897105e-16 0.0 1.5614988626234422e-16 5.26376138665039" Properties=species:S:1:pos:R:3 unique_starting_index=2 config_type=initial n_minim_iter=5 stress="-0.004675854697260855 7.386276369939406e-17 1.4219838181584026e-16 7.386276369939406e-17 0.00115270220433833 4.7922864543059235e-17 1.4219838181584026e-16 4.7922864543059235e-17 -0.0025087890055337514" pbc="T T T"
Si       2.61885662       2.67504452       3.63983747
Si       2.69709805       2.67504452       1.62392392
Si       3.66157038       5.40098250       2.59082788
Si       1.65438430       5.40098250       2.67293351
Si       5.35507539       5.22127199       1.00795677
Si      -0.03912072       5.22127199       4.25580461
Si       4.31236163       2.49533401       5.22270857
Si       1.00359304       2.49533401       0.04105281
8
Lattice="5.32659939148787 0.0 0.0 0.0 7.888967313097407 -2.3299053327995917e-16 0.0 1.5597835185786643e-16 5.251367225551079" Properties=species:S:1:pos:R:3 unique_starting_index=2 config_type=initial n_minim_iter=6 stress="-0.009338380492216853 -4.226169727167026e-17 3.5233803417341166e-17 -4.226169727167026e-17 -0.0003792531297715585 6.615968084791237e-17 3.5233803417341166e-17 6.615968084791237e-17 -0.0048203085364156815" pbc="T T T"
Si       2.63437457       2.68046043       3.63343216
Si       2.69222482       2.68046043       1.61793507
Si       3.66665411       5.40959405       2.60584400
Si       1.65994529       5.40959405       2.64552323
Si       5.35552452       5.20850688       1.00774854
Si      -0.02892512       5.20850688       4.24361868
Si       4.32324498       2.47937326       5.23152761
Si       1.00335441       2.47937326       0.01983962
8
Lattice="5.3394474260549005 0.0 0.0 0.0 7.886307341461863 -2.327024399069223e-16 0.0 1.558421393036013e-16 5.242040063231271" Properties=species:S:1:pos:R:3 unique_starting_index=2 config_type=initial n_minim_iter=7 stress="0.0039785371495598765 -1.0562316473408322e-17 -3.977843829003241e-16 -1.0562316473408322e-17 0.0006064935998116775 1.605094878369729e-16 -3.977843829003241e-16 1.605094878369729e-16 -0.0006845807058510219" pbc="T T T"
Si       2.65685366       2.69127906       3.62996531
Si       2.68259376       2.69127906       1.61207476
Si       3.67430969       5.42592232       2.62673436
Si       1.66513773       5.42592232       2.61530570
Si       5.35231747       5.19502828       1.00894528
Si      -0.01287005       5.19502828       4.23309479
Si       4.33486145       2.46038502       5.24775440
Si       1.00458598       2.46038502      -0.00571433
8
Lattice="5.341212019515852 0.0 0.0 0.0 7.872760455741779 -2.323709487788512e-16 0.0 1.5584686517034293e-16 5.2437721400890025" Properties=species:S:1:pos:R:3 unique_starting_index=2 config_type=initial n_minim_iter=8 stress="0.0057707566063154156 -9.616851950006446e-17 -7.390752123620791e-16 -9.616851950006446e-17 0.0006677495094914537 1.1819664896670225e-16 -7.390752123620791e-16 1.1819664896670225e-16 0.006239464821902533" pbc="T T T"
Si       2.68588396       2.70628707       3.63266339
Si       2.65532806       2.70628707       1.61110875
Si       3.67421028       5.44192421       2.65369639
Si       1.66700174       5.44192421       2.59007575
Si       5.32593407       5.16647339       1.01077732
Si       0.01527795       5.16647339       4.23299482
Si       4.33760775       2.43083625       5.27558246
Si       1.00360427       2.43083625      -0.03181032
8
Lattice="5.321777447271831 0.0 0.0 0.0 7.871608034873905 -2.3238348534103325e-16 0.0 1.5584953499045926e-16 5.2449160421717025" Properties=species:S:1:pos:R:3 unique_starting_index=2 config_type=initial n_minim_iter=9 stress="-0.010681983322715478 -5.3562074023795246e-17 -6.591040594791314e-16 -5.3562074023795246e-17 -0.0010748247792695565 6.608410371155163e-17 -6.591040594791314e-16 6.608410371155163e-17 -0.00011440673374731919" pbc="T T T"
Si       2.68398318       2.71301676       3.63276650
Si       2.63779427       2.71301676       1.61214955
Si       3.66358922       5.44386361       2.64606674
Si       1.65818823       5.44386361       2.59884930
Si       5.29868299       5.15859127       1.01030847
Si       0.02309445       5.15859127       4.23460757
Si       4.31907695       2.42774442       5.26852476
Si       1.00270049       2.42774442      -0.02360872
8
Lattice="5.322010860944947 0.0 0.0 0.0 7.874170938672856 -2.3234652421099597e-16 0.0 1.5577035039619684e-16 5.239695301240628" Properties=species:S:1:pos:R:3 unique_starting_index=2 config_type=initial n_minim_iter=10 stress="-0.0013898002693507965 1.4157339065576755e-17 -6.195731913386113e-16 1.4157339065576755e-17 -0.0002648884181126467 -1.8644709930112244e-17 -6.195731913386113e-16 -1.8644709930112244e-17 -0.0011760960518693356" pbc="T T T"
Si       2.69010490       2.72074111       3.63002484
Si       2.63190596       2.72074111       1.60967046
Si       3.66458561       5.45209342       2.64773417
Si       1.65742525       5.45209342       2.59196113
Si       5.29291139       5.15342983       1.01017719
Si       0.02909947       5.15342983       4.22951811
Si       4.31843068       2.42207752       5.26758182
Si       1.00358018       2.42207752      -0.02788652
8
Lattice="5.326727792402568 0.0 0.0 0.0 7.8747465107069265 -2.323099787884469e-16 0.0 1.5570256676630885e-16 5.236197934897068" Properties=species:S:1:pos:R:3 unique_starting_index=2 config_type=initial n_minim_iter=11 stress="0.013379214229954285 -2.0218879289251286e-18 -5.435561368925203e-16 -2.0218879289251286e-18 0.002397991649489598 2.5779071093795388e-17 -5.435561368925203e-16 2.5779071093795388e-17 -0.0010300108126955398" pbc="T T T"
Si       2.69984703       2.74445396       3.62804297
Si       2.62688076       2.74445396       1.60815497
Si       3.66828359       5.46999820       2.64660785
Si       1.65844420       5.46999820       2.58959008
Si       5.29024466       5.13029255       1.00994400
Si       0.03648313       5.13029255       4.22625394
Si       4.32180809       2.40474831       5.26470682
Si       1.00491970       2.40474831      -0.02850888
8
Lattice="5.32799384515638 0.0 0.0 0.0 7.845411664130394 -2.314070946007109e-16 0.0 1.5565738920769675e-16 5.233890930556513" Properties=species:S:1:pos:R:3 unique_starting_index=2 config_type=initial n_minim_iter=12 stress="0.013782444894864417 -1.5223950568701476e-17 -3.7320880487897974e-16 -1.5223950568701476e-17 -0.008348748218387287 7.215518238290804e-19 -3.7320880487897974e-16 7.215518238290804e-19 -0.0037814004667067027" pbc="T T T"
Si       2.67731262       2.77231954       3.63020595
Si       2.65068122       2.77231954       1.60368498
Si       3.66934873       5.47120589       2.62373803
Si       1.65864512       5.47120589       2.61015290
Si       5.31467815       5.07309212       1.01326048
Si       0.01331570       5.07309212       4.22063045
Si       4.32264204       2.37420578       5.24068349
Si       1.00535180       2.37420578      -0.00679256
8
Lattice="5.326924508580926 0.0 0.0 0.0 7.8568614993821955 -2.318356398994291e-16 0.0 1.5568529750157529e-16 5.236857042180748" Properties=species:S:1:pos:R:3 unique_starting_index=2 config_type=initial n_minim_iter=13 stress="0.008973315484738594 -5.5719416118504285e-18 -2.4386742179593097e-16 -5.5719416118504285e-18 -0.0022300028438476133 -2.159127374592041e-17 -2.4386742179593097e-16 -2.159127374592041e-17 -0.0013661947890927393" pbc="T T T"
Si       2.66180754       2.76976409       3.63229766
Si       2.66511696       2.76976409       1.60455938
Si       3.66834947       5.47024730       2.61436274
Si       1.65857504       5.47024730       2.62249431
Si       5.32857922       5.08709741       1.01386914
Si      -0.00165471       5.08709741       4.22298790
Si       4.32203729       2.38661419       5.23279126
Si       1.00488722       2.38661419       0.00406578
8
Lattice="5.324564966935059 0.0 0.0 0.0 7.8724202198088475 -2.3219967459826915e-16 0.0 1.5560938852702084e-16 5.232119676004485" Properties=species:S:1:pos:R:3 unique_starting_index=2 config_type=initial n_minim_iter=14 stress="-0.003619936194638863 5.669675261269912e-17 -3.0491905876388825e-16 5.669675261269912e-17 0.0005829259621695855 -2.4227420933691044e-17 -3.0491905876388825e-16 -2.4227420933691044e-17 0.001144833148160053" pbc="T T T"
Si       2.66626284       2.77569715       3.63106934
Si       2.65830213       2.77569715       1.60105034
Si       3.66563324       5.48679817       2.62244393
Si       1.65893172       5.48679817       2.60967574
Si       5.32058461       5.09672307       1.01500950
Si       0.00398036       5.09672307       4.21711018
Si       4.32121421       2.38562205       5.23850377
Si       1.00335076       2.38562205      -0.00638410
8
Lattice="5.325488205040291 0.0 0.0 0.0 7.871781780654134 -2.321542540508186e-16 0.0 1.5556299239782943e-16 5.229955759983526" Properties=species:S:1:pos:R:3 unique_starting_index=2 config_type=initial n_minim_iter=15 stress="-0.00028853453345739936 2.683833755543787e-17 -4.465829741462336e-16 2.683833755543787e-17 1.7111423305553725e-05 -1.244596255150465e-17 -4.465829741462336e-16 -1.244596255150465e-17 0.00029506031132866346" pbc="T T T"
Si       2.66460954       2.77724919       3.62994345
Si       2.66087867       2.77724919       1.60001231
Si       3.66648675       5.48708016       2.61836072
Si       1.65900145       5.48708016       2.61159504
Si       5.32362277       5.09453259       1.01496557
Si       0.00186543       5.09453259       4.21499019
Si       4.32174556       2.38470163       5.23333860
Si       1.00374265       2.38470163      -0.00338284
8
Lattice="5.328009866068134 0.0 0.0 0.0 7.873389874917067 -2.321233337244859e-16 0.0 1.554555077308676e-16 5.224558982355139" Properties=species:S:1:pos:R:3 unique_starting_index=2 config_type=initial n_minim_iter=16 stress="0.0010348587445147331 -3.242005815554958e-17 -8.310212294669287e-17 -3.242005815554958e-17 -0.00028397278113040473 -3.2481399818319484e-18 -8.310212294669287e-17 -3.2481399818319484e-18 -0.00038341377272442864" pbc="T T T"
Si       2.66414045       2.77687133       3.62709831
Si       2.66386942       2.77687133       1.59746067
Si       3.66792181       5.48877111       2.61262460
Si       1.66008805       5.48877111       2.61193438
Si       5.32787435       5.09651854       1.01481882
Si       0.00013551       5.09651854       4.20974016
Si       4.32409299       2.38461877       5.22490409
Si       1.00391688       2.38461877      -0.00034511
8
Lattice="5.330387645971277 0.0 0.0 0.0 7.875720412284071 -2.321956896817793e-16 0.0 1.553767631144712e-16 5.2219811287899205" Properties=species:S:1:pos:R:3 unique_starting_index=2 config_type=initial n_minim_iter=17 stress="0.00015065637250553137 3.190556187577773e-17 -2.741092915121381e-16 3.190556187577773e-17 6.690854074664355e-05 -8.065115943282766e-17 -2.741092915121381e-16 -8.065115943282766e-17 0.00013471105424746595" pbc="T T T"
Si       2.66580065       2.77561009       3.62561005
Si       2.66458700       2.77561009       1.59637107
Si       3.66893406       5.49092436       2.61152496
Si       1.66145359       5.49092436       2.61045617
Si       5.32978082       5.10011032       1.01461949
Si       0.00060682       5.10011032       4.20736164
Si       4.32664741       2.38479605       5.22251553
Si       1.00374023       2.38479605      -0.00053440
8
Lattice="5.3292818632124845 0.0 0.0 0.0 7.87512039596946 -2.322681750475067e-16 0.0 1.5534199460601455e-16 5.222844517377136" Properties=species:S:1:pos:R:3 unique_starting_index=2 config_type=initial n_minim_iter=18 stress="-0.0002621353380311741 -1.0129948459880917e-17 -1.6457011385633493e-16 -1.0129948459880917e-17 -0.00012083158769274302 -4.151226169034159e-17 -1.6457011385633493e-16 -4.151226169034159e-17 -6.030227462740972e-05" pbc="T T T"
Si       2.66458624       2.77454521       3.62586566
Si       2.66469562       2.77454521       1.59697885
Si       3.66835669       5.49016789       2.61121431
Si       1.66092518       5.49016789       2.61163021
Si       5.32933655       5.10057518       1.01444341
Si      -0.00005469       5.10057518       4.20840111
Si       4.32556611       2.38495251       5.22263657
Si       1.00371575       2.38495251       0.00020795
8
Lattice="5.32808366626851 0.0 0.0 0.0 7.876172656666726 -2.3238218684457294e-16 0.0 1.5530528827219184e-16 5.22347727593702" Properties=species:S:1:pos:R:3 unique_starting_index=2 config_type=initial n_minim_iter=19 stress="-2.3417930487565904e-05 4.0518582469987275e-17 1.0801328173578883e-17 4.0518582469987275e-17 3.525906331151255e-05 -8.262091129091326e-17 1.0801328173578883e-17 -8.262091129091326e-17 -5.665343505164056e-05" pbc="T T T"
Si       2.66397139       2.77507822       3.62609506
Si       2.66411228       2.77507822       1.59738222
Si       3.66777649       5.49148706       2.61158451
Si       1.66030717       5.49148706       2.61189277
Si       5.32815411       5.10109444       1.01435642
Si      -0.00007045       5.10109444       4.20912086
Si       4.32434901       2.38468559       5.22332315
Si       1.00373466       2.38468559       0.00015413
