22
Lattice="4.65469538172202 0.542292903966931 2.546982740839884 2.7161704664548783 6.66500881293329 2.1814989035893615 8.644422635083057 0.7832968758378013 32.947675000484224" Properties=species:S:1:pos:R:3 unique_starting_index=40 config_type=initial n_minim_iter=1 energy=-4076.48021694912 free_energy=-4076.48021694912 pbc="T T T"
Si      12.83856048       4.42091461      32.99432922
Si       4.28436428       3.48420947      10.50727899
Si       8.27506556       1.21184230      17.68937611
Si       8.52580102       3.11540505      29.98547441
Si      10.53473373       3.92432327      31.72628596
Si       8.92832689       6.73348673      18.29970074
Si       4.64663317       2.39458193      10.08196256
Si       8.48447806       6.49335276      19.16148030
Si       3.72316285       2.60396490       1.12808342
Si      12.41532791       4.30476412      33.79298724
Si       8.74771531       1.88159934      24.78409836
Si       7.36593502       4.78580590      24.11362580
Si       1.49124060       2.88501112      -0.43772253
Si       5.55741867       0.78985330      17.16118097
Si      10.50951583       3.04885481      31.95924822
Si      11.12751135       6.90316374      19.82875006
Si       6.89931346       3.92486486      11.21839351
Si       8.71531377       7.68022855      18.48705423
Si       4.88305193       3.39856589       9.43065240
Si       7.94399879       0.63604490      18.41685277
Si      12.81092494       3.28904331      33.28590506
Si       6.95843806       2.85382043      11.33997372
22
Lattice="4.654660668483329 0.5422237887417952 2.546951728033016 2.7160543685374328 6.664936801885392 2.181481964510289 8.644209077164467 0.7831822254483811 32.947549443144354" Properties=species:S:1:pos:R:3 unique_starting_index=40 config_type=initial n_minim_iter=2 stress="-0.0008391525041592534 -7.773525685477572e-05 -0.00043213167072424295 -7.773525685477572e-05 -6.408066694415593e-05 -3.163779052597794e-05 -0.00043213167072424295 -3.163779052597794e-05 -0.00028098379282538195" pbc="T T T"
Si      12.83831004       4.42072800      32.99426687
Si       4.28427176       3.48405220      10.50722615
Si       8.27495542       1.21171567      17.68936321
Si       8.52558654       3.11528970      29.98535951
Si      10.53444242       3.92410985      31.72613343
Si       8.92813704       6.73334341      18.29958627
Si       4.64650373       2.39454015      10.08193788
Si       8.48427307       6.49323250      19.16143702
Si       3.72310521       2.60386511       1.12805020
Si      12.41507980       4.30464187      33.79275730
Si       8.74754056       1.88147684      24.78398471
Si       7.36571781       4.78562439      24.11351456
Si       1.49123724       2.88493922      -0.43761259
Si       5.55726168       0.78975615      17.16112592
Si      10.50926426       3.04875942      31.95901547
Si      11.12726112       6.90300279      19.82858999
Si       6.89918815       3.92477844      11.21834847
Si       8.71505704       7.68008984      18.48691917
Si       4.88294712       3.39845068       9.43060891
Si       7.94384265       0.63597420      18.41673372
Si      12.81058519       3.28884850      33.28579458
Si       6.95830384       2.85371669      11.33989643
22
Lattice="4.654710532195465 0.5422209702178851 2.546977442049348 2.716080967687453 6.664936105702378 2.1815013264586667 8.644414460646022 0.7831879242602826 32.94767389013823" Properties=species:S:1:pos:R:3 unique_starting_index=40 config_type=initial n_minim_iter=3 stress="2.9368310650605545e-05 2.0698719772624007e-05 2.906347305972581e-05 2.0698719772624007e-05 -2.7923560383167993e-05 2.373193389869679e-05 2.906347305972581e-05 2.373193389869679e-05 -3.2977003111334574e-06" pbc="T T T"
Si      12.83855219       4.42073132      32.99441877
Si       4.28435107       3.48404290      10.50727251
Si       8.27509907       1.21171510      17.68945339
Si       8.52577867       3.11529584      29.98547665
Si      10.53465327       3.92410793      31.72626154
Si       8.92828507       6.73334529      18.29967119
Si       4.64657863       2.39454448      10.08198772
Si       8.48441898       6.49323684      19.16153070
Si       3.72313934       2.60385914       1.12806813
Si      12.41532203       4.30465263      33.79289124
Si       8.74771473       1.88147975      24.78408681
Si       7.36587399       4.78562043      24.11360946
Si       1.49124988       2.88493345      -0.43759352
Si       5.55737311       0.78975604      17.16119701
Si      10.50947948       3.04877022      31.95913369
Si      11.12742937       6.90300517      19.82868437
Si       6.89929061       3.92478102      11.21841024
Si       8.71519741       7.68009289      18.48700189
Si       4.88302523       3.39844675       9.43065583
Si       7.94398125       0.63597948      18.41681217
Si      12.81081695       3.28885031      33.28594154
Si       6.95840527       2.85371645      11.33995444
22
Lattice="4.654732595182564 0.5420204431489899 2.546956210583455 2.7158836964290347 6.665038814129034 2.181320577411965 8.644096030326706 0.781992160326102 32.948248991229526" Properties=species:S:1:pos:R:3 unique_starting_index=40 config_type=initial n_minim_iter=4 stress="9.578509637387826e-05 -7.235508406431137e-05 -0.0001381930480464721 -7.235508406431137e-05 0.00018395798007902556 -5.9240980441551156e-05 -0.0001381930480464721 -5.9240980441551156e-05 0.00021606668784324447" pbc="T T T"
Si      12.83822827       4.41952012      32.99481443
Si       4.28422249       3.48358027      10.50733963
Si       8.27492673       1.21101540      17.68974844
Si       8.52537544       3.11428631      29.98594290
Si      10.53432906       3.92302850      31.72677766
Si       8.92797937       6.73281205      18.29971667
Si       4.64638649       2.39424483      10.08212164
Si       8.48407110       6.49270350      19.16165572
Si       3.72310623       2.60382121       1.12800473
Si      12.41499223       4.30348957      33.79333638
Si       8.74749312       1.88056321      24.78443581
Si       7.36553101       4.78473933      24.11386121
Si       1.49111091       2.88490182      -0.43765712
Si       5.55718704       0.78910954      17.16148944
Si      10.50915323       3.04768280      31.95949710
Si      11.12715052       6.90238242      19.82869697
Si       6.89915043       3.92443817      11.21848632
Si       8.71486637       7.67960597      18.48704882
Si       4.88289371       3.39808829       9.43070040
Si       7.94383378       0.63525937      18.41707639
Si      12.81042450       3.28761020      33.28637824
Si       6.95825511       2.85329383      11.33999743
22
Lattice="4.6547390026304605 0.5419800317345451 2.5469788208230613 2.715888024219426 6.664859599203578 2.181271275129218 8.644960237675544 0.781784485670212 32.947015644794384" Properties=species:S:1:pos:R:3 unique_starting_index=40 config_type=initial n_minim_iter=5 stress="-2.016970661885877e-05 1.4349063510793903e-05 4.9168683943363595e-05 1.4349063510793903e-05 -8.493257087704879e-05 1.2790574415386192e-06 4.9168683943363595e-05 1.2790574415386192e-06 -8.263058630534877e-05" pbc="T T T"
Si      12.83906386       4.41919703      32.99367129
Si       4.28450973       3.48329999      10.50697749
Si       8.27530623       1.21090072      17.68923594
Si       8.52610711       3.11403881      29.98484928
Si      10.53513420       3.92277524      31.72571797
Si       8.92836988       6.73255645      18.29909908
Si       4.64656282       2.39415939      10.08183311
Si       8.48447562       6.49246565      19.16100370
Si       3.72307321       2.60376674       1.12807161
Si      12.41585664       4.30320335      33.79216850
Si       8.74812659       1.88037354      24.78355542
Si       7.36614126       4.78436410      24.11293955
Si       1.49103290       2.88473845      -0.43757510
Si       5.55761412       0.78899243      17.16088659
Si      10.50996382       3.04746068      31.95827184
Si      11.12757600       6.90212503      19.82804558
Si       6.89939490       3.92430716      11.21820226
Si       8.71529012       7.67932774      18.48643831
Si       4.88311589       3.39789216       9.43040743
Si       7.94426668       0.63515389      18.41646926
Si      12.81118961       3.28733212      33.28522853
Si       6.95846802       2.85316698      11.33965514
22
Lattice="4.654723252307168 0.5418310583015781 2.5470266488680364 2.7156946824334347 6.665145770715219 2.1811980140751395 8.645303715868607 0.7810494410523712 32.94706385993399" Properties=species:S:1:pos:R:3 unique_starting_index=40 config_type=initial n_minim_iter=6 stress="-0.0001383676193884453 0.0001614344725926044 4.783176191033622e-05 0.0001614344725926044 0.00025314630819719714 0.0001310063930788342 4.783176191033622e-05 0.0001310063930788342 8.117997219213572e-05" pbc="T T T"
Si      12.83943082       4.41856564      32.99366590
Si       4.28464660       3.48281353      10.50699631
Si       8.27537485       1.21059165      17.68939825
Si       8.52631942       3.11344739      29.98489002
Si      10.53519181       3.92240509      31.72595542
Si       8.92827083       6.73249576      18.29900493
Si       4.64641481       2.39406719      10.08195750
Si       8.48435317       6.49240794      19.16088377
Si       3.72287745       2.60393074       1.12809572
Si      12.41612593       4.30255557      33.79225697
Si       8.74840929       1.87984267      24.78354109
Si       7.36628280       4.78361964      24.11281344
Si       1.49101990       2.88459512      -0.43745731
Si       5.55780026       0.78867725      17.16094731
Si      10.51024470       3.04687095      31.95806808
Si      11.12755649       6.90204067      19.82786928
Si       6.89943770       3.92426837      11.21833636
Si       8.71530427       7.67931363      18.48645135
Si       4.88318822       3.39762638       9.43039564
Si       7.94442211       0.63467513      18.41653092
Si      12.81137156       3.28659765      33.28529854
Si       6.95843138       2.85303130      11.33959338
22
Lattice="4.654837830843799 0.5414304391024032 2.546912801185422 2.7153900242878093 6.664616426813318 2.1808438208837924 8.645327781300981 0.7791053667649871 32.946226746101495" Properties=species:S:1:pos:R:3 unique_starting_index=40 config_type=initial n_minim_iter=7 stress="5.7862025085072755e-05 -7.807263828326017e-05 -9.28495933809405e-06 -7.807263828326017e-05 -5.8026226638724474e-05 -5.607828442740198e-05 -9.28495933809405e-06 -5.607828442740198e-05 -4.974842397312845e-05" pbc="T T T"
Si      12.83943746       4.41623577      32.99262856
Si       4.28457771       3.48180163      10.50660479
Si       8.27545289       1.20937757      17.68893452
Si       8.52622821       3.11150836      29.98402428
Si      10.53503619       3.92037942      31.72510338
Si       8.92803685       6.73096619      18.29821206
Si       4.64629151       2.39327497      10.08164437
Si       8.48409908       6.49087618      19.16006806
Si       3.72280237       2.60362448       1.12793977
Si      12.41609013       4.30021242      33.79122801
Si       8.74847038       1.87820117      24.78281104
Si       7.36610655       4.78175190      24.11196031
Si       1.49093538       2.88427309      -0.43753025
Si       5.55783645       0.78763189      17.16049542
Si      10.51024981       3.04479318      31.95703827
Si      11.12740119       6.90034228      19.82697037
Si       6.89939939       3.92326625      11.21792509
Si       8.71505285       7.67772998      18.48566350
Si       4.88314251       3.39671851       9.42999707
Si       7.94452712       0.63338962      18.41602396
Si      12.81137910       3.28427979      33.28434121
Si       6.95841406       2.85206699      11.33912493
22
Lattice="4.654859015324761 0.5412037999124697 2.5469221619628044 2.715197124869953 6.664338424654661 2.180693076091846 8.645286136709153 0.77794839801636 32.946672479990056" Properties=species:S:1:pos:R:3 unique_starting_index=40 config_type=initial n_minim_iter=8 stress="-2.020709345426349e-06 3.769146815241435e-05 -1.4819903191553935e-05 3.769146815241435e-05 -4.718463328410017e-05 -7.94647906149586e-06 -1.4819903191553935e-05 -7.94647906149586e-06 5.2166596949385155e-05" pbc="T T T"
Si      12.83931064       4.41491696      32.99302508
Si       4.28458929       3.48101996      10.50677451
Si       8.27549643       1.20883894      17.68927395
Si       8.52611133       3.11024794      29.98431060
Si      10.53483396       3.91944461      31.72576478
Si       8.92775315       6.73020984      18.29820398
Si       4.64605733       2.39271032      10.08180566
Si       8.48384906       6.49008176      19.16003331
Si       3.72266127       2.60355664       1.12791179
Si      12.41610232       4.29890859      33.79154044
Si       8.74852154       1.87723804      24.78302804
Si       7.36598884       4.78022362      24.11203257
Si       1.49082775       2.88384035      -0.43753433
Si       5.55786442       0.78716300      17.16074629
Si      10.51029795       3.04363898      31.95711591
Si      11.12709593       6.89958119      19.82686135
Si       6.89935918       3.92273291      11.21812667
Si       8.71482400       7.67690847      18.48575537
Si       4.88318417       3.39606159       9.43000403
Si       7.94451972       0.63253125      18.41621102
Si      12.81122733       3.28285537      33.28481817
Si       6.95833498       2.85159685      11.33909358
22
Lattice="4.654921541952411 0.5409094706851638 2.5468670791115255 2.714831191363096 6.664459599733153 2.180585324880834 8.645904378638539 0.7772155510727794 32.94510780405309" Properties=species:S:1:pos:R:3 unique_starting_index=40 config_type=initial n_minim_iter=9 stress="-9.322188385473543e-06 -0.00018270076620571934 0.00010615060064684265 -0.00018270076620571934 0.00030560241094478973 3.630596463794566e-05 0.00010615060064684265 3.630596463794566e-05 -0.00022995334912517836" pbc="T T T"
Si      12.83980061       4.41403341      32.99152535
Si       4.28463568       3.48078419      10.50639472
Si       8.27576883       1.20841312      17.68855632
Si       8.52649363       3.10957589      29.98296712
Si      10.53514414       3.91892956      31.72442688
Si       8.92767307       6.72991798      18.29730434
Si       4.64605815       2.39226454      10.08136886
Si       8.48382645       6.48978642      19.15906640
Si       3.72251304       2.60348147       1.12796174
Si      12.41661671       4.29817998      33.78996377
Si       8.74899537       1.87659557      24.78183438
Si       7.36620830       4.77939890      24.11078067
Si       1.49062575       2.88365310      -0.43740843
Si       5.55817730       0.78686934      17.15995956
Si      10.51085124       3.04301211      31.95535657
Si      11.12707351       6.89923588      19.82588383
Si       6.89939022       3.92241044      11.21774958
Si       8.71472812       7.67669124      18.48492924
Si       4.88327076       3.39573349       9.42956735
Si       7.94490790       0.63183862      18.41534957
Si      12.81171977       3.28193576      33.28330918
Si       6.95843673       2.85123340      11.33854339
22
Lattice="4.654963793566744 0.5407538039723369 2.5468248452993527 2.7147759441453223 6.6638645031532775 2.180414528741699 8.645293115121191 0.7761891419776417 32.94599263984281" Properties=species:S:1:pos:R:3 unique_starting_index=40 config_type=initial n_minim_iter=10 stress="9.168324743315693e-06 1.0357033865383057e-05 -3.136671160522062e-05 1.0357033865383057e-05 -9.437622040127044e-05 2.857002248763102e-05 -3.136671160522062e-05 2.857002248763102e-05 9.066122349383884e-05" pbc="T T T"
Si      12.83937497       4.41258793      32.99219480
Si       4.28450310       3.48016007      10.50672934
Si       8.27541734       1.20802632      17.68901840
Si       8.52586508       3.10836577      29.98382220
Si      10.53443870       3.91795564      31.72536568
Si       8.92727987       6.72898214      18.29741549
Si       4.64580734       2.39144104      10.08155063
Si       8.48343585       6.48882308      19.15923049
Si       3.72248364       2.60330558       1.12792607
Si      12.41611605       4.29695541      33.79070772
Si       8.74867944       1.87568941      24.78233769
Si       7.36579225       4.77765965      24.11113585
Si       1.49064358       2.88306427      -0.43736372
Si       5.55787427       0.78648587      17.16041330
Si      10.51040228       3.04202525      31.95569353
Si      11.12673729       6.89834954      19.82593692
Si       6.89925656       3.92175174      11.21802967
Si       8.71439405       7.67568981      18.48516962
Si       4.88325207       3.39500679       9.42966870
Si       7.94466806       0.63108830      18.41571308
Si      12.81110739       3.28061472      33.28406324
Si       6.95832012       2.85066663      11.33858136
22
Lattice="4.655043127035822 0.5405696967477137 2.54671533295378 2.714721282888408 6.663854648213177 2.1800255514901656 8.645659580983617 0.774543484625963 32.94446928660647" Properties=species:S:1:pos:R:3 unique_starting_index=40 config_type=initial n_minim_iter=11 stress="2.876217839580812e-05 4.29570978532152e-05 -3.894025292646593e-06 4.29570978532152e-05 5.974883210967309e-05 -8.125898635248772e-05 -3.894025292646593e-06 -8.125898635248772e-05 -5.928716897856592e-05" pbc="T T T"
Si      12.83980599       4.41086512      32.99047899
Si       4.28463501       3.47971466      10.50622551
Si       8.27552187       1.20732716      17.68830712
Si       8.52610652       3.10684193      29.98235871
Si      10.53471193       3.91668561      31.72400187
Si       8.92738854       6.72827203      18.29621979
Si       4.64588308       2.39066118      10.08099994
Si       8.48355156       6.48807618      19.15802893
Si       3.72248357       2.60333415       1.12778345
Si      12.41649218       4.29537098      33.78902632
Si       8.74904977       1.87441842      24.78109728
Si       7.36605037       4.77594941      24.10970340
Si       1.49069617       2.88279920      -0.43732312
Si       5.55804049       0.78573793      17.15962680
Si      10.51090407       3.04059467      31.95385029
Si      11.12695818       6.89760904      19.82458512
Si       6.89938749       3.92120258      11.21752366
Si       8.71451494       7.67499574      18.48401261
Si       4.88341591       3.39441666       9.42913978
Si       7.94492019       0.63006144      18.41485054
Si      12.81132917       3.27886442      33.28254361
Si       6.95849705       2.85003922      11.33788793
22
Lattice="4.655001522114215 0.5403593412908924 2.5468359978369897 2.7143211177159103 6.663529542778518 2.1803346044789693 8.64596214471863 0.7751720099589794 32.94513753581879" Properties=species:S:1:pos:R:3 unique_starting_index=40 config_type=initial n_minim_iter=12 stress="-0.0001710470165000272 -0.00014676192375021537 0.00013584102939991728 -0.00014676192375021537 -5.507059663641485e-05 7.658793341118765e-06 0.00013584102939991728 7.658793341118765e-06 0.00022015035806801896" pbc="T T T"
Si      12.83991764       4.41107155      32.99131999
Si       4.28458029       3.47979603      10.50664457
Si       8.27543647       1.20763952      17.68892663
Si       8.52619509       3.10717634      29.98304480
Si      10.53463544       3.91735504      31.72501660
Si       8.92710407       6.72831627      18.29677649
Si       4.64585094       2.39038658      10.08129461
Si       8.48328921       6.48820527      19.15864193
Si       3.72234128       2.60321170       1.12798947
Si      12.41661120       4.29576090      33.78994645
Si       8.74926342       1.87466745      24.78162711
Si       7.36606082       4.77557021      24.11021535
Si       1.49050989       2.88225088      -0.43713136
Si       5.55811469       0.78606872      17.16002232
Si      10.51114029       3.04109724      31.95429923
Si      11.12675500       6.89762468      19.82502055
Si       6.89923958       3.92102705      11.21810060
Si       8.71416252       7.67500534      18.48466152
Si       4.88331424       3.39416951       9.42956913
Si       7.94502377       0.63022873      18.41526079
Si      12.81137781       3.27909319      33.28348589
Si       6.95846258       2.84980184      11.33817993
22
Lattice="4.655135009886612 0.5404533406234134 2.5465700857653273 2.71445613526647 6.663594961247668 2.180234507016799 8.645338464685539 0.7757494681315916 32.94319651704752" Properties=species:S:1:pos:R:3 unique_starting_index=40 config_type=initial n_minim_iter=13 stress="9.353692613003886e-05 -1.469009688732192e-05 -6.957855447647404e-05 -1.469009688732192e-05 -4.828153971761674e-06 9.529424428776543e-05 -6.957855447647404e-05 9.529424428776543e-05 -6.441792832624663e-05" pbc="T T T"
Si      12.83955431       4.41168635      32.98930521
Si       4.28451895       3.48004306      10.50603663
Si       8.27520045       1.20809650      17.68787894
Si       8.52568167       3.10765580      29.98129111
Si      10.53409942       3.91808276      31.72322931
Si       8.92700880       6.72877275      18.29562300
Si       4.64579673       2.39048284      10.08066511
Si       8.48312793       6.48867176      19.15747327
Si       3.72249890       2.60334608       1.12788542
Si      12.41619206       4.29644701      33.78791371
Si       8.74894595       1.87510523      24.78009811
Si       7.36572862       4.77571391      24.10875731
Si       1.49061861       2.88210298      -0.43708230
Si       5.55781209       0.78641962      17.15899221
Si      10.51070319       3.04172173      31.95224940
Si      11.12674549       6.89816206      19.82363270
Si       6.89925002       3.92125563      11.21744900
Si       8.71405179       7.67544885      18.48354077
Si       4.88328168       3.39428627       9.42904191
Si       7.94479278       0.63059386      18.41407074
Si      12.81095041       3.27969918      33.28147047
Si       6.95848533       2.84997872      11.33738865
22
Lattice="4.65515497179196 0.5404525687362217 2.546535805265119 2.7147798191681316 6.663621631418912 2.179627192113435 8.645886987683625 0.7732216846130832 32.94235633991739" Properties=species:S:1:pos:R:3 unique_starting_index=40 config_type=initial n_minim_iter=14 stress="-1.4273528934628695e-05 1.5252940105400018e-05 2.149568086943039e-05 1.5252940105400018e-05 1.90191448306181e-05 -6.807370112379589e-05 2.149568086943039e-05 -6.807370112379589e-05 1.7041002179881867e-06" pbc="T T T"
Si      12.84021490       4.40934677      32.98821707
Si       4.28493261       3.47945138      10.50544687
Si       8.27530584       1.20715962      17.68764870
Si       8.52624568       3.10529131      29.98032458
Si      10.53455840       3.91610889      31.72240125
Si       8.92752071       6.72786933      18.29458146
Si       4.64614251       2.38968371      10.08025937
Si       8.48365702       6.48764719      19.15646372
Si       3.72255739       2.60362020       1.12783920
Si      12.41690753       4.29424615      33.78677964
Si       8.74946901       1.87324211      24.77937152
Si       7.36638781       4.77326173      24.10762516
Si       1.49076868       2.88186390      -0.43717053
Si       5.55804884       0.78527404      17.15856702
Si      10.51149333       3.03947195      31.95101433
Si      11.12733864       6.89735761      19.82237048
Si       6.89956143       3.92053717      11.21709943
Si       8.71456693       7.67449080      18.48244448
Si       4.88349580       3.39352898       9.42874628
Si       7.94504390       0.62930152      18.41360472
Si      12.81164882       3.27733140      33.28045096
Si       6.95885735       2.84910204      11.33685713
22
Lattice="4.655214025252587 0.540609982423538 2.546401160916602 2.71494215798463 6.663700640318323 2.1796732672885732 8.645440019217096 0.7741364712703297 32.9414855001849" Properties=species:S:1:pos:R:3 unique_starting_index=40 config_type=initial n_minim_iter=15 stress="2.0694118227850936e-05 -5.89644366013631e-05 -2.2606053216505055e-05 -5.89644366013631e-05 -3.092103295574155e-05 9.995054949783108e-05 -2.2606053216505055e-05 9.995054949783108e-05 2.017659474248772e-05" pbc="T T T"
Si      12.83986543       4.41026234      32.98729574
Si       4.28502296       3.47982539      10.50508277
Si       8.27487726       1.20802961      17.68732698
Si       8.52590706       3.10600247      29.97954553
Si      10.53407718       3.91717181      31.72189369
Si       8.92740423       6.72864256      18.29408207
Si       4.64623948       2.38996780      10.08004592
Si       8.48360188       6.48838450      19.15590780
Si       3.72265651       2.60394916       1.12788534
Si      12.41656026       4.29538161      33.78590247
Si       8.74928323       1.87383254      24.77869381
Si       7.36626635       4.77314688      24.10688063
Si       1.49087888       2.88156933      -0.43691508
Si       5.55779021       0.78601589      17.15809738
Si      10.51144106       3.04052833      31.94982030
Si      11.12738258       6.89844019      19.82159475
Si       6.89954057       3.92068447      11.21701263
Si       8.71442734       7.67530149      18.48204627
Si       4.88338153       3.39361433       9.42872691
Si       7.94486777       0.62979871      18.41304636
Si      12.81137309       3.27831586      33.27958789
Si       6.95902196       2.84923794      11.33645236
22
Lattice="4.655252519346007 0.5407462836834944 2.5463057040016963 2.715341815093045 6.663911213428486 2.179214014888566 8.64551209477306 0.7726684276276522 32.94060408865623" Properties=species:S:1:pos:R:3 unique_starting_index=40 config_type=initial n_minim_iter=16 stress="-6.366735304155856e-06 1.2416644129740176e-05 5.482026264963316e-06 1.2416644129740176e-05 2.2058324828315912e-05 -3.951081016501136e-05 5.482026264963316e-06 -3.951081016501136e-05 -5.06054041345597e-07" pbc="T T T"
Si      12.84016410       4.40906587      32.98616389
Si       4.28532818       3.47955510      10.50452005
Si       8.27475231       1.20774235      17.68693214
Si       8.52615640       3.10471818      29.97857930
Si      10.53416722       3.91608075      31.72102304
Si       8.92775065       6.72840341      18.29316559
Si       4.64649665       2.38970844      10.07970792
Si       8.48402823       6.48802209      19.15495604
Si       3.72288872       2.60432967       1.12770923
Si      12.41685439       4.29428170      33.78481867
Si       8.74946699       1.87277037      24.77795733
Si       7.36664008       4.77167858      24.10585002
Si       1.49098774       2.88153532      -0.43697055
Si       5.55780021       0.78551124      17.15760025
Si      10.51177618       3.03937174      31.94857363
Si      11.12784214       6.89839513      19.82048948
Si       6.89974325       3.92029617      11.21663466
Si       8.71478624       7.67508417      18.48111327
Si       4.88352773       3.39328157       9.42839606
Si       7.94492845       0.62907076      18.41253917
Si      12.81161072       3.27714257      33.27868453
Si       6.95936397       2.84886145      11.33593722
22
Lattice="4.655320172476256 0.5410367321207012 2.546130650219334 2.7156654624200964 6.664132855113551 2.1792576134418873 8.644736404231516 0.7739048469371571 32.9398128843317" Properties=species:S:1:pos:R:3 unique_starting_index=40 config_type=initial n_minim_iter=17 stress="-9.038339291394405e-07 -4.732116439908982e-06 -3.989608509127662e-06 -4.732116439908982e-06 1.8831892208642852e-06 -7.3293107594615915e-06 -3.989608509127662e-06 -7.3293107594615915e-06 7.157998314787751e-06" pbc="T T T"
Si      12.83966578       4.41035341      32.98532538
Si       4.28535237       3.47996666      10.50429464
Si       8.27409557       1.20912689      17.68666894
Si       8.52557689       3.10571638      29.97797099
Si      10.53342176       3.91766971      31.72052860
Si       8.92764967       6.72967072      18.29269368
Si       4.64657133       2.39028068      10.07968320
Si       8.48406575       6.48925739      19.15451825
Si       3.72324883       2.60476871       1.12760899
Si      12.41630404       4.29593176      33.78399402
Si       8.74908688       1.87349572      24.77734606
Si       7.36643781       4.77173086      24.10512891
Si       1.49120089       2.88129045      -0.43680084
Si       5.55729008       0.78646109      17.15710415
Si      10.51135187       3.04073849      31.94761041
Si      11.12788563       6.89995507      19.81963684
Si       6.89960603       3.92038094      11.21653665
Si       8.71452849       7.67628529      18.48063677
Si       4.88353391       3.39359509       9.42812000
Si       7.94455571       0.62973187      18.41197712
Si      12.81100974       3.27868500      33.27779463
Si       6.95970423       2.84924489      11.33552196
22
Lattice="4.6553788175396225 0.5413552792543294 2.5459617226260636 2.7159793003246104 6.664467744285791 2.17936419689546 8.643964430605276 0.7754571750048356 32.93900494160733" Properties=species:S:1:pos:R:3 unique_starting_index=40 config_type=initial n_minim_iter=18 stress="6.513493595786125e-06 -6.9737742077712084e-06 -1.526775213245294e-05 -6.9737742077712084e-06 2.006740442815904e-05 -5.510544539425372e-06 -1.526775213245294e-05 -5.510544539425372e-06 2.359006767641145e-05" pbc="T T T"
Si      12.83907553       4.41205816      32.98448566
Si       4.28531203       3.48047806      10.50418630
Si       8.27335980       1.21052347      17.68643557
Si       8.52500225       3.10706724      29.97724975
Si      10.53273982       3.91949110      31.71997798
Si       8.92751369       6.73118993      18.29224484
Si       4.64661870       2.39094156      10.07972947
Si       8.48391483       6.49075314      19.15410260
Si       3.72355157       2.60513502       1.12759791
Si      12.41570820       4.29799873      33.78318251
Si       8.74868648       1.87442889      24.77676518
Si       7.36623050       4.77217509      24.10445901
Si       1.49146535       2.88115261      -0.43669814
Si       5.55680416       0.78754108      17.15664892
Si      10.51083991       3.04252591      31.94671553
Si      11.12797168       6.90188464      19.81890868
Si       6.89947990       3.92074533      11.21645634
Si       8.71436746       7.67777508      18.48023730
Si       4.88360842       3.39409270       9.42772925
Si       7.94425844       0.63062972      18.41133905
Si      12.81054851       3.28051660      33.27704606
Si       6.96001697       2.84969167      11.33511656
22
Lattice="4.655426193549768 0.5417133532135626 2.5457964263486343 2.7163486851215684 6.664681850289523 2.179489510619052 8.643691634862055 0.7772661542235579 32.93725097327725" Properties=species:S:1:pos:R:3 unique_starting_index=40 config_type=initial n_minim_iter=19 stress="1.392662150007367e-06 1.969705975535867e-06 -9.049455383894885e-06 1.969705975535867e-06 -4.2541973346076135e-07 1.7489297883407365e-05 -9.049455383894885e-06 1.7489297883407365e-05 8.422109439490985e-06" pbc="T T T"
Si      12.83899964       4.41394639      32.98276865
Si       4.28541641       3.48097264      10.50386218
Si       8.27287863       1.21212085      17.68579302
Si       8.52485935       3.10867963      29.97567215
Si      10.53253918       3.92150386      31.71835702
Si       8.92766159       6.73275022      18.29143111
Si       4.64680546       2.39159543      10.07957393
Si       8.48407145       6.49229340      19.15323982
Si       3.72379034       2.60549373       1.12767155
Si      12.41561901       4.30020612      33.78155891
Si       8.74862854       1.87547288      24.77556371
Si       7.36641693       4.77272873      24.10314262
Si       1.49161006       2.88107360      -0.43645348
Si       5.55660785       0.78878929      17.15573457
Si      10.51099614       3.04442627      31.94498311
Si      11.12825859       6.90386561      19.81763497
Si       6.89953909       3.92126640      11.21617646
Si       8.71448203       7.67929846      18.47944482
Si       4.88385501       3.39460761       9.42707325
Si       7.94410451       0.63167715      18.41025895
Si      12.81053703       3.28255636      33.27544004
Si       6.96045228       2.85008812      11.33443679
22
Lattice="4.655471992443809 0.5419170629052051 2.54565669460913 2.7166390971269982 6.664813959254083 2.179392878116174 8.6437470493543 0.7777448156098076 32.93545831172592" Properties=species:S:1:pos:R:3 unique_starting_index=40 config_type=initial n_minim_iter=20 stress="-2.8485970740105836e-06 7.549711759385415e-06 2.8223363924536534e-06 7.549711759385415e-06 2.366178558187927e-06 5.1169972461776565e-06 2.8223363924536534e-06 5.1169972461776565e-06 -1.0542062915348234e-05" pbc="T T T"
Si      12.83916921       4.41450875      32.98093412
Si       4.28559486       3.48104414      10.50339478
Si       8.27269147       1.21303461      17.68511393
Si       8.52503884       3.10913430      29.97399444
Si      10.53271762       3.92210509      31.71666826
Si       8.92785490       6.73349709      18.29040840
Si       4.64702992       2.39176459      10.07929566
Si       8.48435387       6.49297282      19.15218826
Si       3.72395311       2.60577539       1.12776181
Si      12.41578616       4.30092424      33.77977973
Si       8.74877566       1.87548055      24.77433073
Si       7.36677245       4.77244951      24.10167195
Si       1.49179857       2.88108983      -0.43639330
Si       5.55651005       0.78935294      17.15477399
Si      10.51121928       3.04504591      31.94313279
Si      11.12866659       6.90488685      19.81616415
Si       6.89969182       3.92143096      11.21579670
Si       8.71458597       7.68004666      18.47838321
Si       4.88413420       3.39471197       9.42637182
Si       7.94409815       0.63191403      18.40932437
Si      12.81080975       3.28319829      33.27369051
Si       6.96087745       2.85000810      11.33366230
22
Lattice="4.655540739990807 0.542035850432211 2.545492661386755 2.7168865922126746 6.664814989953778 2.1791840186340172 8.643596117751866 0.7776008500080244 32.93391272905388" Properties=species:S:1:pos:R:3 unique_starting_index=40 config_type=initial n_minim_iter=21 stress="-1.5414746426828612e-07 1.603907436870149e-05 4.79146784967519e-06 1.603907436870149e-05 -1.0953719101435292e-05 -9.025122122219647e-06 4.79146784967519e-06 -9.025122122219647e-06 -8.843314782657493e-06" pbc="T T T"
Si      12.83919870       4.41446827      32.97938434
Si       4.28580223       3.48081222      10.50290054
Si       8.27205053       1.21370229      17.68458072
Si       8.52508853       3.10897971      29.97247902
Si      10.53269844       3.92203107      31.71512518
Si       8.92789554       6.73392325      18.28933488
Si       4.64720586       2.39156611      10.07903453
Si       8.48451424       6.49325745      19.15120197
Si       3.72414286       2.60600757       1.12781529
Si      12.41586482       4.30088716      33.77812154
Si       8.74880035       1.87469386      24.77331532
Si       7.36702329       4.77146071      24.10021770
Si       1.49199841       2.88115273      -0.43647725
Si       5.55626911       0.78974890      17.15399927
Si      10.51122057       3.04496329      31.94157333
Si      11.12895280       6.90573156      19.81457271
Si       6.89981306       3.92126550      11.21554247
Si       8.71460747       7.68051278      18.47733774
Si       4.88439588       3.39443051       9.42573439
Si       7.94398626       0.63167449      18.40842661
Si      12.81073257       3.28313432      33.27202008
Si       6.96133718       2.84962026      11.33273891
