16
Lattice="11.42627907895151 4.446167213782 3.845568859509345 6.306592470473824 10.514520811431927 3.8455688595513124 6.306592470509626 5.32068154836675 9.850578440274658" Properties=species:S:1:pos:R:3 unique_starting_index=52 config_type=initial n_minim_iter=1 energy=-2629.920615716477 free_energy=-2629.920615716477 pbc="T T T"
Si      11.39275042       8.44188518       7.36541082
Si      10.30192348       9.79804792       7.29233115
Si      10.23961801       8.70206428       8.64486925
Si       4.92975179       5.70946607       5.17560984
Si       6.68955985       3.85848274       4.90400780
Si       6.45800031       5.68333318       3.11148656
Si      18.26828964      15.33445361      15.14138869
Si      20.02365562      15.11256295      12.99235090
Si      18.19145205      17.20631944      13.08247564
Si      18.50507857      15.64343875      12.35738610
Si      17.39180777      15.80233804      13.69931512
Si      18.53589521      14.47751663      13.66316951
Si      17.02221307       8.42308552      11.32488015
Si      15.10931480      14.68787681       6.70312607
Si      11.16894931      13.42034219      13.56856679
Si      11.24247316       9.48493498       8.20368844
16
Lattice="11.324560376028872 4.415950513278134 3.8194338994624206 6.259680256139714 10.41934209711066 3.819433899503938 6.259680256175131 5.28110313032737 9.76015956712313" Properties=species:S:1:pos:R:3 unique_starting_index=52 config_type=initial n_minim_iter=2 stress="-0.00012460138098597745 0.022111760040815182 0.019124853329658586 0.022111760040815182 -0.007678599349336156 0.016135061002089376 0.019124853329658586 0.016135061002089376 -0.012378122954296399" pbc="T T T"
Si      11.29621101       8.37566430       7.30533708
Si      10.21766380       9.71450298       7.23545878
Si      10.15808771       8.63051072       8.57039231
Si       4.89250397       5.66135408       5.13194891
Si       6.63386545       3.83020882       4.86269003
Si       6.40430360       5.63600426       3.08946210
Si      18.12019590      15.21091597      15.01646102
Si      19.85931274      14.99039631      12.88810620
Si      18.04474283      17.06465623      12.97660701
Si      18.35544841      15.51642738      12.25686708
Si      17.25052175      15.67467430      13.58811542
Si      18.38550316      14.35987332      13.55286343
Si      16.87648949       8.36415088      11.23030198
Si      14.98415197      14.56142217       6.65843633
Si      11.08631983      13.30748080      13.44987240
Si      11.15271755       9.40921088       8.13819332
16
Lattice="10.8639177694377 4.0248565248213035 3.48116977423938 5.796609087366949 10.031126678218499 3.4811697742809184 5.796609087402385 4.890423974379371 9.424743963749812" Properties=species:S:1:pos:R:3 unique_starting_index=52 config_type=initial n_minim_iter=3 stress="-0.022565897358201543 0.0031348119942477496 0.002711354478132884 0.0031348119942477496 -0.02363683713829523 0.0022874878645453038 0.002711354478132884 0.0022874878645453038 -0.024303094502556938" pbc="T T T"
Si      10.66550238       7.86620161       6.84819379
Si       9.59318433       9.18132914       6.79719329
Si       9.54970287       8.10090707       8.10594268
Si       4.54440511       5.36734367       4.88269755
Si       6.29036094       3.53574355       4.60766840
Si       6.05587953       5.34704022       2.83482191
Si      17.02809926      14.29283429      14.23866540
Si      18.78632624      14.06576309      12.09169647
Si      16.95588653      16.16212073      12.17639661
Si      17.32350693      14.64228340      11.47269426
Si      16.18768486      14.80933382      12.83610377
Si      17.35008590      13.45850629      12.80492862
Si      16.04138054       7.65947792      10.61921571
Si      14.14736515      13.85715258       6.04918307
Si      10.25109577      12.60124209      12.84075415
Si      10.51752994       8.87332228       7.67469377
16
Lattice="10.89162352705506 4.073350857353362 3.5231133823143255 5.849076030073204 10.050271630972617 3.523113382355661 5.849076030108466 4.934688748940894 9.437644553167384" Properties=species:S:1:pos:R:3 unique_starting_index=52 config_type=initial n_minim_iter=4 stress="0.0005860072055695742 0.0010735661165112288 0.0009285463699029766 0.0010735661165112288 0.00021924688219837399 0.0007833865213618369 0.0009285463699029766 0.0007833865213618369 -8.923525616379356e-06" pbc="T T T"
Si      10.63268502       7.94715964       6.85782233
Si       9.60855104       9.14541160       6.87591867
Si       9.62397943       8.10380886       8.05905490
Si       4.58911670       5.38722240       4.92231663
Si       6.33935888       3.57273320       4.62163009
Si       6.08300278       5.39211480       2.86941343
Si      17.10968807      14.38693207      14.32559404
Si      18.89822379      14.12941995      12.17228468
Si      17.06237841      16.25744867      12.22777538
Si      17.49037974      14.76604770      11.46340501
Si      16.22430218      14.97236883      12.95991484
Si      17.50018047      13.47001571      12.94841932
Si      16.10016110       7.75385246      10.66155498
Si      14.21196769      13.90574948       6.13647096
Si      10.35402013      12.64919940      12.87626467
Si      10.64887765       8.98413638       7.77053885
16
Lattice="10.767341690056934 3.9873035913081427 3.4486895761816516 5.743331270592078 9.942252406555193 3.4486895762228293 5.743331270627206 4.845475089862347 9.34147814116804" Properties=species:S:1:pos:R:3 unique_starting_index=52 config_type=initial n_minim_iter=5 stress="0.0016542471608921932 -0.01145388240857334 -0.009906665987448266 -0.01145388240857334 0.0055672149339059335 -0.008357954818257405 -0.009906665987448266 -0.008357954818257405 0.008001566186276843" pbc="T T T"
Si      10.40738957       7.84348038       6.75410649
Si       9.45472097       8.94312935       6.78826821
Si       9.48384621       7.97168747       7.87151552
Si       4.51340523       5.30966898       4.87147764
Si       6.26600418       3.50845515       4.55221265
Si       5.99380865       5.33293325       2.81581013
Si      16.84046967      14.18245666      14.11387774
Si      18.61733249      13.90428242      12.00045424
Si      16.81549257      16.01466055      12.02975052
Si      17.27407434      14.57388664      11.24454881
Si      15.94710492      14.80027969      12.80129915
Si      17.27434242      13.22737988      12.80098472
Si      15.88461475       7.60368950      10.50279068
Si      13.99947985      13.72337710       6.01075509
Si      10.16970836      12.46511697      12.71391296
Si      10.52549016       8.88003808       7.68050239
16
Lattice="10.807310606896882 4.033771565889092 3.488880551334632 5.7958655990689705 9.973826625571752 3.488880551375698 5.795865599104004 4.889796715762848 9.366930828016194" Properties=species:S:1:pos:R:3 unique_starting_index=52 config_type=initial n_minim_iter=6 stress="0.012446395318022408 -0.005369832166308778 -0.0046444630547657195 -0.005369832166308778 0.014280880732120109 -0.003918393172443557 -0.0046444630547657195 -0.003918393172443557 0.015422158177863294" pbc="T T T"
Si      10.39470968       7.91243725       6.81568753
Si       9.52244975       8.91869678       6.84763080
Si       9.54968360       8.02915126       7.83878321
Si       4.55940985       5.33451436       4.91072968
Si       6.31556734       3.54666001       4.57114205
Si       6.02604536       5.37770779       2.85088826
Si      16.93266415      14.27931697      14.19922680
Si      18.72986741      13.97858968      12.08400377
Si      16.92649327      16.10986494      12.09124175
Si      17.40359911      14.67499026      11.34118697
Si      16.07753989      14.90940035      12.88742082
Si      17.39581135      13.33895544      12.89655528
Si      15.96468939       7.69476403      10.55274194
Si      14.07462400      13.79177586       6.09368043
Si      10.27296521      12.52371177      12.76964732
Si      10.62116703       8.96075776       7.75031827
16
Lattice="10.6644589237282 3.918142452244657 3.3888708806885526 5.657834629487195 9.852483530413318 3.388870880729564 5.6578346295221795 4.773344156572425 9.261266820788736" Properties=species:S:1:pos:R:3 unique_starting_index=52 config_type=initial n_minim_iter=7 stress="-0.005417719066333907 -0.0007388971087528206 -0.0006390852109682699 -0.0007388971087528206 -0.005165291071084558 -0.0005391768860663876 -0.0006390852109682699 -0.0005391768860663876 -0.005008249551186488" pbc="T T T"
Si      10.13709024       7.75374366       6.68391457
Si       9.32799430       8.69056174       6.70958360
Si       9.34987893       7.86600880       7.63292361
Si       4.47177627       5.23556336       4.85876399
Si       6.23606662       3.47133700       4.48071275
Si       5.91375175       5.31623693       2.78938333
Si      16.58207203      14.00411995      13.91876290
Si      18.35816985      13.68641080      11.85209721
Si      16.59619420      15.78920349      11.83553296
Si      17.11162454      14.41818742      11.18049821
Si      15.83515771      14.65459914      12.65645555
Si      17.09351358      13.14469935      12.67769835
Si      15.71438845       7.50668959      10.34264738
Si      13.80082965      13.58461752       5.93784605
Si      10.04543141      12.28481779      12.58710878
Si      10.43853665       8.80667803       7.61705198
16
Lattice="10.609746013187763 3.8587506030010124 3.3375018171826563 5.590078416412675 9.80855187979333 3.337501817223768 5.590078416447746 4.716180286482336 9.225196575876982" Properties=species:S:1:pos:R:3 unique_starting_index=52 config_type=initial n_minim_iter=8 stress="0.0016237983408032577 -0.003929917437419351 -0.0033990552741884994 -0.003929917437419351 0.002966368461112102 -0.0028676802511052126 -0.0033990552741884994 -0.0028676802511052126 0.0038016135853750663" pbc="T T T"
Si      10.04685964       7.63513844       6.64137174
Si       9.25445574       8.61158568       6.59834731
Si       9.21777443       7.81397043       7.57080227
Si       4.44392409       5.18932461       4.84552470
Si       6.21189460       3.44721033       4.43686458
Si       5.86348354       5.30030132       2.77182749
Si      16.37789245      13.85148796      13.79539815
Si      18.18177507      13.50940463      11.71883663
Si      16.41136254      15.64182568      11.67957872
Si      17.01241715      14.33657271      11.11486041
Si      15.74283469      14.56972492      12.58515187
Si      16.99636001      13.06763433      12.60398570
Si      15.61651002       7.42641469      10.23967566
Si      13.67250396      13.50724126       5.87324841
Si       9.94982229      12.17096484      12.51984941
Si      10.30757657       8.69619097       7.52148975
16
Lattice="10.58055359192169 3.834826207200643 3.3168091830441795 5.561580306987645 9.783804517651335 3.3168091830852755 5.561580307022704 4.6921372924739035 9.203689565864286" Properties=species:S:1:pos:R:3 unique_starting_index=52 config_type=initial n_minim_iter=9 stress="0.002966118389571169 0.004674840700578526 0.004043352612954152 0.004674840700578526 0.001369061570521602 0.0034112544519026276 0.004043352612954152 0.0034112544519026276 0.00037549415748239955" pbc="T T T"
Si       9.98548580       7.59149230       6.57922654
Si       9.17730332       8.56250163       6.56411255
Si       9.16441759       7.74481463       7.52716417
Si       4.46017542       5.16431987       4.84990931
Si       6.21535581       3.46310582       4.41148898
Si       5.84157211       5.30755544       2.79121395
Si      16.27288455      13.73988044      13.71341856
Si      18.06827449      13.42226330      11.62020825
Si      16.28366770      15.54849324      11.60756041
Si      17.01628702      14.33941979      11.10846166
Si      15.73764917      14.57453660      12.58889137
Si      16.99981804      13.06178302      12.60820825
Si      15.57612934       7.42021596      10.17783268
Si      13.60450058      13.47789164       5.87602662
Si       9.93691295      12.10418160      12.49040579
Si      10.19448612       8.60077998       7.43896710
16
Lattice="10.427638456916116 3.712156565859243 3.210710035155259 5.414914890711897 9.653727098053432 3.2107100351962936 5.4149148907469025 4.568400111450046 9.09025996521141" Properties=species:S:1:pos:R:3 unique_starting_index=52 config_type=initial n_minim_iter=10 stress="0.012697858073262697 -0.009188266710914389 -0.007947094798237415 -0.009188266710914389 0.015836827921841993 -0.006704723803576232 -0.007947094798237415 -0.006704723803576232 0.017789656471788495" pbc="T T T"
Si       9.74700170       7.38511566       6.39273804
Si       8.92592488       8.36350233       6.38676514
Si       8.92083257       7.53140301       7.35579975
Si       4.39331829       5.06425534       4.77965805
Si       6.12135880       3.41133635       4.32259293
Si       5.73167912       5.23096826       2.75279574
Si      15.89222042      13.40975159      13.43628524
Si      17.68695904      13.10121972      11.33346328
Si      15.89415767      15.22818867      11.33119102
Si      16.75074944      14.12154193      10.88720754
Si      15.44617026      14.35494171      12.40517288
Si      16.74034085      12.81040473      12.41738138
Si      15.31178450       7.23884755       9.96401683
Si      13.32566432      13.25734723       5.72736456
Si       9.71362480      11.85944748      12.29358729
Si       9.93333762       8.38045687       7.24840574
16
Lattice="10.232891827702238 3.558252518348869 3.077595695544054 5.230417612039398 9.487674517246438 3.0775956955849875 5.230417612074321 4.41274533100346 8.945123903783148" Properties=species:S:1:pos:R:3 unique_starting_index=52 config_type=initial n_minim_iter=11 stress="-0.028041821755379854 0.004769442884615815 0.004125175719309992 0.004769442884615815 -0.029671197336253684 0.0034802861349114735 0.004125175719309992 0.0034802861349114735 -0.030684871027346357" pbc="T T T"
Si       9.43201951       7.10815446       6.13831332
Si       8.58537202       8.10212920       6.14936028
Si       8.59479033       7.24161024       7.13136751
Si       4.31690410       4.94196610       4.68145737
Si       5.99533272       3.35534241       4.21573196
Si       5.59826955       5.12590507       2.71278610
Si      15.41306714      13.00079323      13.08778126
Si      17.20824515      12.69689752      10.97899693
Si      15.41036044      14.82518052      10.98217168
Si      16.40056915      13.83850422      10.64588372
Si      15.11160678      14.05683761      12.15986697
Si      16.40238237      12.52872355      12.15774020
Si      14.97855132       7.01552068       9.70204842
Si      12.98229901      12.97793917       5.54412130
Si       9.43737814      11.55829573      12.04350312
Si       9.61504665       8.11192439       7.01614724
16
Lattice="10.153138144422083 3.4921266390282946 3.0204022500215872 5.151807262850691 9.42019344647027 3.020402250062497 5.151807262885595 4.346424154171809 8.886589412861184" Properties=species:S:1:pos:R:3 unique_starting_index=52 config_type=initial n_minim_iter=12 stress="-0.013962302143724403 -0.015959050246838122 -0.013803265533293066 -0.015959050246838122 -0.008510242564622626 -0.011645398140774007 -0.013803265533293066 -0.011645398140774007 -0.00511838532619963" pbc="T T T"
Si       9.26361886       6.96537442       6.01216632
Si       8.41368713       7.96061566       6.02624977
Si       8.42569425       7.09632268       7.00907268
Si       4.31620579       4.89730128       4.62481168
Si       5.93361626       3.36517603       4.17969661
Si       5.55412483       5.07083526       2.72771014
Si      15.19761994      12.81776071      12.93413223
Si      16.99609439      12.51456816      10.82001745
Si      15.19366510      14.64697162      10.82465618
Si      16.28363493      13.74897544      10.55601796
Si      14.99154202      13.95871848      12.08422334
Si      16.29444296      12.42535735      12.07154633
Si      14.84880112       6.93904617       9.60239688
Si      12.85238537      12.86850077       5.48280591
Si       9.34014872      11.44310860      11.94404328
Si       9.45286183       7.97509397       6.89780017
16
Lattice="10.249573398194853 3.576679538700843 3.093533552181647 5.251390313798775 9.501015268876916 3.0935335522225142 5.251390313833646 4.430439365903156 8.956028584302778" Properties=species:S:1:pos:R:3 unique_starting_index=52 config_type=initial n_minim_iter=13 stress="0.004424744923133751 -0.002534351632388791 -0.0021920056642392273 -0.002534351632388791 0.005290550587019945 -0.00184932895953567 -0.0021920056642392273 -0.00184932895953567 0.005829189089737315" pbc="T T T"
Si       9.29812920       6.99244961       6.03671747
Si       8.44729196       7.98988566       6.04950425
Si       8.45819357       7.12486289       7.03468593
Si       4.48701797       4.97791421       4.61620806
Si       5.96543588       3.53302698       4.26070794
Si       5.66234740       5.08462981       2.88213440
Si      15.40479787      12.98918389      13.08765949
Si      17.20508488      12.68904830      10.96752632
Si      15.39752451      14.82416705      10.97605743
Si      16.58249258      14.00758113      10.78267328
Si      15.29968524      14.20926954      12.30746615
Si      16.59967677      12.68582544      12.28731038
Si      15.04136242       7.13818304       9.77275250
Si      13.07926655      13.02509660       5.65531405
Si       9.56886508      11.63420792      12.07414424
Si       9.51050829       8.02372854       6.93986508
16
Lattice="10.25499264151598 3.5854205380771704 3.101093797531589 5.260918984385676 9.50488537289585 3.101093797572418 5.260918984420519 4.438478417421015 8.95876877874148" Properties=species:S:1:pos:R:3 unique_starting_index=52 config_type=initial n_minim_iter=14 stress="0.0012582392482734647 0.0006827713202623215 0.0005905410212927667 0.0006827713202623215 0.0010249853979623757 0.0004982216197347042 0.0005905410212927667 0.0004982216197347042 0.0008798725743231634" pbc="T T T"
Si       9.28996808       6.99475726       6.04290204
Si       8.45227827       7.98075461       6.05089655
Si       8.45909415       7.12976760       7.02544955
Si       4.51520838       4.98801928       4.58786416
Si       5.94397031       3.56529232       4.27479219
Si       5.67705477       5.06034111       2.91203325
Si      15.42829072      13.01003568      13.10387262
Si      17.22781740      12.70899839      10.98582397
Si      15.42203421      14.84304221      10.99316238
Si      16.60507111      14.02348349      10.79747772
Si      15.32018663      14.22867317      12.32106903
Si      16.61915376      12.70329683      12.30455114
Si      15.05530761       7.15610840       9.80403575
Si      13.11467567      13.03319539       5.66854405
Si       9.58888255      11.66671063      12.08025191
Si       9.50807529       8.02167590       6.93808971
16
Lattice="10.287459141761481 3.611575705502952 3.1237158656033728 5.292167290706278 9.532484462977866 3.1237158656442205 5.292167290741129 4.464841669468192 8.982819697199957" Properties=species:S:1:pos:R:3 unique_starting_index=52 config_type=initial n_minim_iter=15 stress="0.008778755261990049 0.0038014428712895747 0.0032879353438971617 0.0038014428712895747 0.007480075660099424 0.002773931722792032 0.0032879353438971617 0.002773931722792032 0.006672135881788507" pbc="T T T"
Si       9.35216999       7.05854792       6.10541775
Si       8.53279312       8.03010437       6.10501216
Si       8.53244733       7.19891886       7.06648554
Si       4.50712768       5.01929206       4.58936542
Si       5.94851650       3.55631803       4.30552218
Si       5.70652047       5.05991999       2.89872412
Si      15.52509184      13.09715437      13.17415595
Si      17.32504852      12.79059312      11.06190470
Si      15.52420803      14.92422890      11.06294135
Si      16.63798035      14.04158907      10.81695806
Si      15.34730147      14.25742747      12.33617830
Si      16.64254195      12.72680937      12.33082788
Si      15.10901268       7.18539314       9.86387833
Si      13.18625073      13.07545229       5.68889914
Si       9.62679179      11.73284694      12.11913433
Si       9.57444065       8.07766634       6.98651684
16
Lattice="10.214409136869232 3.549153229249535 3.069725559059833 5.218336204924913 9.470987800233356 3.0697255591006885 5.218336204959772 4.402552612794181 8.929745540136096" Properties=species:S:1:pos:R:3 unique_starting_index=52 config_type=initial n_minim_iter=16 stress="-0.008301104423015177 0.0017331218483823835 0.0014990078171480115 0.0017331218483823835 -0.008893187499987944 0.0012646676110824942 0.0014990078171480115 0.0012646676110824942 -0.009261536605644938" pbc="T T T"
Si       9.26898962       6.98944419       6.04757988
Si       8.45255420       7.95942516       6.04496482
Si       8.45032468       7.13154547       7.00519758
Si       4.44219508       4.97090359       4.54093533
Si       5.88346938       3.50155592       4.26461810
Si       5.64788980       5.00394568       2.85042835
Si      15.35806761      12.95965390      13.05637717
Si      17.16250801      12.64891394      10.94281269
Si      15.36054790      14.78728962      10.93990351
Si      16.44965543      13.87524948      10.67900690
Si      15.15740094      14.09881256      12.19145526
Si      16.44686793      12.56758222      12.19472479
Si      14.98169796       7.08070095       9.76475252
Si      13.05325157      12.96901170       5.59958486
Si       9.50215764      11.61921071      12.02667594
Si       9.48237605       7.99999422       6.91933684
16
Lattice="10.147053737370015 3.4906094463753594 3.0190900031942833 5.149287267250243 9.414451364539914 3.0190900032351586 5.149287267285114 4.344298110011509 8.88109637792054" Properties=species:S:1:pos:R:3 unique_starting_index=52 config_type=initial n_minim_iter=17 stress="-0.013349352528390618 -0.004668982556332535 -0.004038285800150308 -0.004668982556332535 -0.011754297015878582 -0.0034069797350082275 -0.004038285800150308 -0.0034069797350082275 -0.010761974663644768" pbc="T T T"
Si       9.21154710       6.92982058       5.99591126
Si       8.38401327       7.91285841       5.99340958
Si       8.38188041       7.07370305       6.96654656
Si       4.37507253       4.92047234       4.48178186
Si       5.80730340       3.44647140       4.22323792
Si       5.58687678       4.93709840       2.80188215
Si      15.21236585      12.84310523      12.95059057
Si      17.01823152      12.52574631      10.84272558
Si      15.22113062      14.66473789      10.83244517
Si      16.24958653      13.69888238      10.52771548
Si      14.95108604      13.93108737      12.03873186
Si      16.23933216      12.39372911      12.05075946
Si      14.86894934       7.00007045       9.67221756
Si      12.93255196      12.87524723       5.53313129
Si       9.40369422      11.51358184      11.94346690
Si       9.41481147       7.94299202       6.87003463
16
Lattice="10.126946466630585 3.468148317813416 2.999662974835897 5.123761249041533 9.398413065774916 2.9996629748768204 5.123761249076448 4.322762579576901 8.868025135171155" Properties=species:S:1:pos:R:3 unique_starting_index=52 config_type=initial n_minim_iter=18 stress="-0.006827757744525011 -0.0019641513985198 -0.0016988293715656665 -0.0019641513985198 -0.00615674848762349 -0.0014332510200155554 -0.0016988293715656665 -0.0014332510200155554 -0.0057392975092766816" pbc="T T T"
Si       9.19861296       6.92153302       5.98391783
Si       8.36895941       7.90230834       5.98693691
Si       8.37153339       7.06019856       6.95703941
Si       4.34492861       4.89601665       4.44752496
Si       5.76533857       3.42305906       4.20397429
Si       5.55769475       4.89951046       2.78149029
Si      15.16485269      12.80924011      12.92452470
Si      16.97999531      12.48407626      10.81297033
Si      15.17974895      14.63301644      10.79549813
Si      16.14886205      13.61428057      10.45513944
Si      14.85131546      13.84594623      11.96547214
Si      16.13897870      12.30965525      11.97706456
Si      14.83884799       7.00952055       9.64142087
Si      12.89878593      12.85047761       5.54692088
Si       9.40794108      11.47860133      11.91696860
Si       9.40422166       7.93405772       6.86230719
16
Lattice="10.095334808900454 3.4342935869062123 2.970381417785651 5.08506724060057 9.372953030032201 2.9703814178266366 5.085067240635538 4.290117613581655 8.847050645940737" Properties=species:S:1:pos:R:3 unique_starting_index=52 config_type=initial n_minim_iter=19 stress="0.00200235601568738 0.0018422700741410724 0.0015934120529524666 0.0018422700741410724 0.0013729848407274745 0.0013443136129007239 0.0015934120529524666 0.0013443136129007239 0.0009814379135266937" pbc="T T T"
Si       9.15617044       6.88560945       5.95303946
Si       8.32659028       7.86648834       5.95583822
Si       8.32897642       7.02448510       6.92607496
Si       4.31229567       4.87066828       4.40721906
Si       5.71692744       3.39822277       4.18469903
Si       5.52721370       4.85560475       2.75969102
Si      15.08656900      12.73559059      12.86051948
Si      16.89391927      12.41936172      10.74931343
Si      15.09396988      14.56034596      10.74063275
Si      16.03056136      13.51875434      10.37108330
Si      14.73583556      13.74565769      11.88305644
Si      16.02489739      12.21198945      11.88969985
Si      14.78015381       7.02061246       9.60524501
Si      12.85519177      12.79837980       5.56311033
Si       9.40899197      11.43419625      11.86308154
Si       9.36536668       7.90127695       6.83395453
16
Lattice="9.92998824944882 3.275207266425683 2.832784838393868 4.9004119225586855 9.23675333985113 2.832784838435022 4.900411922593794 4.134329500093377 8.732101796614144" Properties=species:S:1:pos:R:3 unique_starting_index=52 config_type=initial n_minim_iter=20 stress="0.0193334045751656 -0.005454661432744032 -0.0047178333914547725 -0.005454661432744032 0.021196870048066332 -0.00398029350902866 -0.0047178333914547725 -0.00398029350902866 0.02235617668461152" pbc="T T T"
Si       8.91861325       6.69193310       5.78679068
Si       8.09691454       7.66472225       5.78814177
Si       8.09806643       6.83092543       6.75058183
Si       4.18389797       4.76935530       4.23514601
Si       5.51307078       3.30278695       4.10924115
Si       5.40572817       4.66954690       2.67612569
Si      14.66737932      12.36091348      12.55228796
Si      16.46945464      12.06660508      10.42296679
Si      14.65406086      14.20487609      10.43858836
Si      15.54951232      13.13015133      10.02566499
Si      14.26270387      13.33845875      11.54828828
Si      15.56084569      11.81127155      11.53499508
Si      14.45517825       6.94300630       9.42380255
Si      12.61246464      12.51015856       5.51246205
Si       9.27777594      11.21036704      11.58516783
Si       9.12571998       7.69909427       6.65908314
16
Lattice="9.902064065128348 3.249509348668551 2.8105582536680984 4.870379151620339 9.21355472530668 2.8105582537092664 4.870379151655462 4.1089917585274955 8.712348426327164" Properties=species:S:1:pos:R:3 unique_starting_index=52 config_type=initial n_minim_iter=21 stress="0.016564667172338805 -0.005866304721831571 -0.00507387097115654 -0.005866304721831571 0.018568761548760505 -0.004280671659311373 -0.00507387097115654 -0.004280671659311373 0.019815556804497744" pbc="T T T"
Si       8.87597623       6.65659140       5.75667160
Si       8.05533596       7.62856989       5.75750946
Si       8.05605029       6.79592158       6.71922129
Si       4.16797355       4.75284352       4.20582173
Si       5.47944006       3.29237648       4.09712767
Si       5.38677084       4.63866726       2.66756957
Si      14.59560282      12.29757583      12.49933324
Si      16.39671812      12.00621340      10.36792163
Si      14.57954209      14.14381492      10.38675966
Si      15.47637485      13.07121917       9.97346794
Si      14.19110307      13.27649239      11.49749343
Si      15.49044037      11.75065991      11.48099563
Si      14.39997192       6.93139349       9.39279104
Si      12.57126996      12.46118926       5.50543954
Si       9.25703354      11.17211879      11.53772171
Si       9.08311269       7.66314779       6.62799239
