24
Lattice="16.103150929204336 2.0968191369715976 -9.12500027020219 -7.471974265510068 6.831681177513773 6.528849791177675 -10.849844974448112 2.6635598071105315 19.182998556721582" Properties=species:S:1:pos:R:3 unique_starting_index=90 config_type=initial n_minim_iter=1 energy=-4240.4216765355695 free_energy=-4240.4216765355695 pbc="T T T"
Si       6.39866453       3.55652729       5.79358155
Si      -4.01579635       1.55359575       4.71361378
Si       5.45307524       8.56139701       3.72068031
Si      -3.20834555       1.56012432       4.07402723
Si       0.14683245       6.65321122      14.54270101
Si     -15.57647141       7.11216338      21.79475176
Si      -3.22394786       2.10036791       5.08136464
Si       0.24807031       8.16125649      13.21116098
Si     -15.75944108       8.91905620      21.52114294
Si       5.69052361       5.84025668       4.51336185
Si       0.35283606       6.47791839       1.93755959
Si       5.46562741       8.11020578       2.90294467
Si       4.38913426       9.97781624       1.28146122
Si       2.49877011       5.79746870       8.84919314
Si      -4.25053389       3.92867778       3.51817150
Si     -16.61464456       8.86562430      22.07030518
Si      -4.28203937       1.98091045       5.58108217
Si       0.15779720       8.59897197      14.03928104
Si      -4.41247202       5.60700063      14.48030891
Si      -9.69534430       4.31478189      14.22197129
Si      -0.22035881      10.42747464      11.75410655
Si      11.61969263       2.76812288      -3.93274325
Si       6.70343760       5.98257315       4.14157024
Si       0.15781387       7.14359736       3.90800199
24
Lattice="16.101173076921757 2.094347096636958 -9.124724249266398 -7.471586524094725 6.832260300808622 6.529700838404931 -10.848502050377476 2.666278764494164 19.18378284144201" Properties=species:S:1:pos:R:3 unique_starting_index=90 config_type=initial n_minim_iter=2 stress="-0.0006851229895422761 0.0010816831311049498 -0.0005986126731168328 0.0010816831311049498 -0.004340310370535876 0.0022423161569308865 -0.0005986126731168328 0.0022423161569308865 -0.0013154879248485445" pbc="T T T"
Si       6.39780997       3.55645717       5.79425769
Si      -4.01538637       1.55413910       4.71376193
Si       5.45191393       8.56025940       3.72204654
Si      -3.20803596       1.56074609       4.07436417
Si       0.14660698       6.65413600      14.54384001
Si     -15.57494500       7.11509145      21.79605917
Si      -3.22365083       2.10101679       5.08180569
Si       0.24758751       8.16190274      13.21258369
Si     -15.75791930       8.92158846      21.52273475
Si       5.68977913       5.83961779       4.51426943
Si       0.35228427       6.47744277       1.93838976
Si       5.46454167       8.10923810       2.90412242
Si       4.38788859       9.97640840       1.28273492
Si       2.49828530       5.79769647       8.85018848
Si      -4.25033267       3.92941042       3.51833073
Si     -16.61303869       8.86835966      22.07171166
Si      -4.28150055       1.98168947       5.58145415
Si       0.15727008       8.59956364      14.04097761
Si      -4.41209238       5.60838561      14.48142546
Si      -9.69422356       4.31680135      14.22282124
Si      -0.22071197      10.42761363      11.75580717
Si      11.61818033       2.76662100      -3.93205575
Si       6.70245381       5.98193704       4.14254590
Si       0.15742733       7.14330525       3.90896941
24
Lattice="16.099227180621167 2.092262848060816 -9.124739770159785 -7.471550721058406 6.8338757547209985 6.530113378079596 -10.84703264600666 2.668294906578399 19.18516652474099" Properties=species:S:1:pos:R:3 unique_starting_index=90 config_type=initial n_minim_iter=3 stress="0.0002658659457390753 -0.0009733051941482516 0.0005045806702872643 -0.0009733051941482516 -1.3581647119500552e-05 7.116568364431393e-05 0.0005045806702872643 7.116568364431393e-05 0.00034550891613078865" pbc="T T T"
Si       6.39707492       3.55619552       5.79511698
Si      -4.01502353       1.55472899       4.71392579
Si       5.45053858       8.56004130       3.72301499
Si      -3.20776994       1.56145797       4.07472185
Si       0.14643382       6.65491473      14.54523181
Si     -15.57356576       7.11813859      21.79758857
Si      -3.22339870       2.10175923       5.08227765
Si       0.24703665       8.16283558      13.21404782
Si     -15.75663465       8.92458847      21.52437109
Si       5.68901329       5.83932989       4.51506122
Si       0.35145275       6.47795815       1.93875619
Si       5.46325244       8.10920425       2.90488582
Si       4.38626126       9.97646024       1.28329478
Si       2.49780390       5.79805260       8.85124176
Si      -4.25033786       3.93079350       3.51819715
Si     -16.61167753       8.87155077      22.07315949
Si      -4.28099822       1.98254342       5.58186387
Si       0.15666866       8.60044650      14.04274196
Si      -4.41170949       5.60970259      14.48277371
Si      -9.69315166       4.31882586      14.22386255
Si      -0.22126973      10.42858964      11.75725400
Si      11.61669177       2.76540029      -3.93150482
Si       6.70144403       5.98167713       4.14340305
Si       0.15679400       7.14395808       3.90952292
24
Lattice="16.098680491221696 2.0954035250739196 -9.126187958146375 -7.470266382652082 6.833236291080209 6.530470101825346 -10.84719429457136 2.666159996414967 19.1858683482865" Properties=species:S:1:pos:R:3 unique_starting_index=90 config_type=initial n_minim_iter=4 stress="-0.00041000308814434456 0.00019847622022510326 -9.978876041237753e-05 0.00019847622022510326 0.0005027243600473853 -6.745068621857866e-05 -9.978876041237753e-05 -6.745068621857866e-05 0.00035506477775374676" pbc="T T T"
Si       6.39636658       3.55749936       5.79425814
Si      -4.01479331       1.55400768       4.71406026
Si       5.45085773       8.56158349       3.72220777
Si      -3.20754151       1.56110886       4.07498248
Si       0.14609230       6.65496977      14.54470827
Si     -15.57279639       7.11572120      21.79853738
Si      -3.22318618       2.10138478       5.08249662
Si       0.24697605       8.16337965      13.21358986
Si     -15.75539737       8.92223118      21.52533482
Si       5.68908630       5.84061538       4.51422015
Si       0.35218431       6.47871565       1.93847035
Si       5.46366500       8.11093807       2.90406380
Si       4.38715233       9.97810401       1.28248714
Si       2.49764007       5.79881427       8.85064169
Si      -4.24958006       3.93066648       3.51820324
Si     -16.61044265       8.86903680      22.07405606
Si      -4.28059751       1.98190361       5.58213687
Si       0.15657768       8.60094589      14.04237437
Si      -4.41165539       5.60910034      14.48285480
Si      -9.69256684       4.31736148      14.22448882
Si      -0.22053614      10.42924754      11.75680139
Si      11.61626241       2.76774627      -3.93229646
Si       6.70136063       5.98330697       4.14251247
Si       0.15763310       7.14470213       3.90919980
24
Lattice="16.106215036150882 2.097300788052369 -9.12262233898132 -7.47373636796508 6.831128694595568 6.526060249050015 -10.852640331388658 2.661786454711725 19.176161721171077" Properties=species:S:1:pos:R:3 unique_starting_index=90 config_type=initial n_minim_iter=5 stress="0.0011485802397709782 0.00018764877407576638 1.0078118082458266e-05 0.00018764877407576638 0.0004380259763506943 -0.0001308500930548082 1.0078118082458266e-05 -0.0001308500930548082 -0.0006682856611724056" pbc="T T T"
Si       6.39869917       3.55652343       5.78995989
Si      -4.01692329       1.55268263       4.71089617
Si       5.45271839       8.55936636       3.71855610
Si      -3.20902636       1.56084747       4.07304231
Si       0.14550138       6.65078160      14.53522591
Si     -15.58059814       7.11053953      21.78673352
Si      -3.22486152       2.10054995       5.07980881
Si       0.24626038       8.15989877      13.20575762
Si     -15.76256598       8.91665919      21.51349465
Si       5.69231313       5.83869785       4.51022139
Si       0.35192189       6.47783285       1.93619649
Si       5.46609870       8.10977947       2.90079941
Si       4.38856060       9.97627206       1.27945894
Si       2.49842927       5.79660784       8.84458605
Si      -4.25148005       3.92910865       3.51573954
Si     -16.61835444       8.86324318      22.06144283
Si      -4.28197147       1.98057233       5.57902414
Si       0.15571864       8.59700387      14.03392672
Si      -4.41401551       5.60545444      14.47481579
Si      -9.69646134       4.31423891      14.21710524
Si      -0.22038269      10.42570264      11.74876162
Si      11.62139604       2.76878795      -3.92966300
Si       6.70466919       5.98201281       4.13897334
Si       0.15805146       7.14341063       3.90575693
24
Lattice="16.09938646632088 2.0950923322921393 -9.124124854882227 -7.471857628802324 6.83026951946459 6.52631519191063 -10.848607517276003 2.661074162203299 19.178798834086606" Properties=species:S:1:pos:R:3 unique_starting_index=90 config_type=initial n_minim_iter=6 stress="-0.0005144757757552586 -7.238113830151963e-05 0.00032200201722028563 -7.238113830151963e-05 -0.0002503184859861706 -0.0005988010452062346 0.00032200201722028563 -0.0005988010452062346 -6.219279920363093e-05" pbc="T T T"
Si       6.39551974       3.55420538       5.79027151
Si      -4.01567885       1.55241491       4.71112438
Si       5.44882802       8.55597998       3.71852965
Si      -3.20797316       1.56106786       4.07364548
Si       0.14429573       6.64734654      14.53635936
Si     -15.57562739       7.10958532      21.78922939
Si      -3.22403789       2.10036685       5.08051054
Si       0.24463190       8.15696517      13.20704885
Si     -15.75731016       8.91529060      21.51589553
Si       5.68964352       5.83581563       4.51010708
Si       0.35039776       6.47630342       1.93585784
Si       5.46255948       8.10695389       2.90034179
Si       4.38471952       9.97288434       1.27849095
Si       2.49646221       5.79416267       8.84510857
Si      -4.25053015       3.92817985       3.51600598
Si     -16.61295844       8.86182733      22.06361334
Si      -4.28008602       1.98032450       5.57961540
Si       0.15409544       8.59366796      14.03542548
Si      -4.41306106       5.60349159      14.47658199
Si      -9.69264331       4.31366155      14.21898304
Si      -0.22169273      10.42231738      11.74944759
Si      11.61608025       2.76695024      -3.92938595
Si       6.70130577       5.97921479       4.13903701
Si       0.15709905       7.14162204       3.90563276
24
Lattice="16.101960121374344 2.091394976909543 -9.127520054519817 -7.4743084711591505 6.833252788162869 6.529980427579398 -10.852804340774876 2.6668612896383967 19.183999324081977" Properties=species:S:1:pos:R:3 unique_starting_index=90 config_type=initial n_minim_iter=7 stress="1.7756515998198038e-05 -0.00020782567411488687 -2.815001266724422e-05 -0.00020782567411488687 0.00036958020204769145 0.00027686606018182563 -2.815001266724422e-05 0.00027686606018182563 0.0001487216430657836" pbc="T T T"
Si       6.39480329       3.55496968       5.79078827
Si      -4.01707816       1.55387897       4.71268558
Si       5.44760415       8.55695773       3.72042504
Si      -3.20902748       1.56268944       4.07519254
Si       0.14116277       6.65072675      14.53974425
Si     -15.58131642       7.11702765      21.79649997
Si      -3.22546898       2.10220003       5.08242278
Si       0.24150988       8.16072980      13.21082917
Si     -15.76277391       8.92291575      21.52364758
Si       5.68917667       5.83663315       4.51100173
Si       0.34911549       6.47740520       1.93754978
Si       5.46171700       8.10775567       2.90160351
Si       4.38340837       9.97332056       1.28006783
Si       2.49459026       5.79649571       8.84712390
Si      -4.25210692       3.92960933       3.51820824
Si     -16.61878550       8.86956550      22.07138544
Si      -4.28122717       1.98228286       5.58151469
Si       0.15086108       8.59768967      14.03959273
Si      -4.41631005       5.60773524      14.48083257
Si      -9.69574767       4.31847292      14.22372535
Si      -0.22455985      10.42595334      11.75352578
Si      11.61710449       2.76536466      -3.93037133
Si       6.70083896       5.97993845       4.13994798
Si       0.15590498       7.14329552       3.90780638
24
Lattice="16.107807222767814 2.0933324432385203 -9.13059232963797 -7.4771051000971855 6.830272668291137 6.529895863350826 -10.858456860111257 2.6620374049020015 19.18576117055583" Properties=species:S:1:pos:R:3 unique_starting_index=90 config_type=initial n_minim_iter=8 stress="0.0006938046367683145 0.0003425882714944291 0.00014508398390911467 0.0003425882714944291 -0.0002595413904833142 -0.0001717117379172598 0.00014508398390911467 -0.0001717117379172598 0.001018643906534902" pbc="T T T"
Si       6.39622158       3.55252086       5.78907693
Si      -4.01919875       1.55183627       4.71313551
Si       5.44892707       8.55469733       3.71854567
Si      -3.21044773       1.56148435       4.07564423
Si       0.13897649       6.64582873      14.53826849
Si     -15.58886298       7.11079048      21.79802143
Si      -3.22729004       2.10058193       5.08310047
Si       0.23970225       8.15611993      13.20962381
Si     -15.76949255       8.91657519      21.52499724
Si       5.69107408       5.83475087       4.50870748
Si       0.34854357       6.47587636       1.93625647
Si       5.46304142       8.10606518       2.89900410
Si       4.38406778       9.97075938       1.27713560
Si       2.49405614       5.79378726       8.84538270
Si      -4.25440821       3.92806745       3.51833489
Si     -16.62612255       8.86275583      22.07259306
Si      -4.28259898       1.98055803       5.58170816
Si       0.14925866       8.59259912      14.03864359
Si      -4.41942392       5.60337336      14.48113262
Si      -9.69952428       4.31442940      14.22483786
Si      -0.22578607      10.42147330      11.75171706
Si      11.62044795       2.76666092      -3.93128169
Si       6.70293368       5.97817715       4.13786951
Si       0.15607252       7.14131141       3.90649407
24
Lattice="16.106719105558962 2.091420652779258 -9.1288975605725 -7.478145440438007 6.831418868627364 6.527651050675138 -10.860054528880752 2.6627350877897458 19.178803464039635" Properties=species:S:1:pos:R:3 unique_starting_index=90 config_type=initial n_minim_iter=9 stress="-0.00016168229517364043 -7.0490896984951285e-06 5.408141660526302e-05 -7.0490896984951285e-06 0.0002702803188587091 1.0529018309769813e-05 5.408141660526302e-05 1.0529018309769813e-05 -0.00012689465029961752" pbc="T T T"
Si       6.39434879       3.55089935       5.78535564
Si      -4.01979331       1.55193009       4.71151471
Si       5.44649073       8.55416916       3.71593265
Si      -3.21092679       1.56178663       4.07433069
Si       0.13580804       6.64492752      14.53124224
Si     -15.59107682       7.11234206      21.79023512
Si      -3.22809481       2.10082269       5.08146004
Si       0.23654978       8.15543029      13.20344692
Si     -15.77158646       8.91846350      21.51736454
Si       5.68933796       5.83394716       4.50541847
Si       0.34684109       6.47615353       1.93499266
Si       5.46065896       8.10567602       2.89651133
Si       4.38140703       9.97030567       1.27524760
Si       2.49159136       5.79328796       8.84058092
Si      -4.25541871       3.92885258       3.51726920
Si     -16.62830417       8.86457433      22.06463401
Si      -4.28284429       1.98100338       5.57961905
Si       0.14608829       8.59201017      14.03219321
Si      -4.42166118       5.60342177      14.47532532
Si      -9.70045101       4.31537880      14.21971727
Si      -0.22885786      10.42136999      11.74603427
Si      11.61890091       2.76548810      -3.93037678
Si       6.70101458       5.97725624       4.13481990
Si       0.15468616       7.14158936       3.90437903
24
Lattice="16.115417777436562 2.086434510320115 -9.130670817254533 -7.48616539658464 6.829825668081586 6.525256540811722 -10.87205181647245 2.6608213372970537 19.172717939714214" Properties=species:S:1:pos:R:3 unique_starting_index=90 config_type=initial n_minim_iter=10 stress="0.00025763146895288583 -0.00021306046978242528 -4.3432828465449224e-05 -0.00021306046978242528 -0.0003238281126561825 -0.00020330687284818584 -4.3432828465449224e-05 -0.00020330687284818584 -0.00025660296731558715" pbc="T T T"
Si       6.39365251       3.54443807       5.77867881
Si      -4.02423423       1.55126099       4.70977333
Si       5.44475682       8.54750429       3.71056091
Si      -3.21503707       1.56107388       4.07328004
Si       0.12763770       6.63696110      14.52209049
Si     -15.60752355       7.10930589      21.78324656
Si      -3.23254847       2.09955316       5.08007952
Si       0.22858044       8.14785997      13.19395035
Si     -15.78849619       8.91566480      21.51059480
Si       5.68871739       5.82824308       4.49912064
Si       0.34261861       6.47307579       1.93215616
Si       5.45815587       8.09987353       2.89150221
Si       4.37781563       9.96378928       1.26991154
Si       2.48693206       5.78782377       8.83296318
Si      -4.26047383       3.92823368       3.51653707
Si     -16.64573931       8.86158297      22.05733632
Si      -4.28692906       1.98048996       5.57794823
Si       0.13761672       8.58448178      14.02334852
Si      -4.43068169       5.59875299      14.46889398
Si      -9.71007564       4.31386609      14.21489120
Si      -0.23713123      10.41402697      11.73764653
Si      11.62356581       2.76077955      -3.93113926
Si       6.70075385       5.97143810       4.12851332
Si       0.15120658       7.13794814       3.90060860
24
Lattice="16.119536370581457 2.0842794651225875 -9.134163244088368 -7.489857435952902 6.831259678500688 6.526555338275862 -10.878913346957559 2.662329455168026 19.173823846226412" Properties=species:S:1:pos:R:3 unique_starting_index=90 config_type=initial n_minim_iter=11 stress="2.3618342062525206e-06 -8.929928898465917e-06 -2.113088160481562e-05 -8.929928898465917e-06 5.802603782024884e-05 0.00011292522927165713 -2.113088160481562e-05 0.00011292522927165713 0.0003142373393917696" pbc="T T T"
Si       6.39260356       3.54282306       5.77539875
Si      -4.02701337       1.55177596       4.70988973
Si       5.44433725       8.54766438       3.70946009
Si      -3.21794102       1.56143953       4.07379075
Si       0.12228996       6.63667159      14.51989791
Si     -15.61614680       7.11120917      21.78520065
Si      -3.23527138       2.09996263       5.08090747
Si       0.22369665       8.14722283      13.19188560
Si     -15.79718108       8.91881194      21.51329514
Si       5.68848510       5.82774403       4.49650829
Si       0.33994410       6.47373890       1.93171112
Si       5.45644930       8.09973502       2.89024331
Si       4.37561700       9.96333830       1.26774931
Si       2.48375998       5.78814115       8.83019230
Si      -4.26290280       3.92922498       3.51805442
Si     -16.65442621       8.86414737      22.05951956
Si      -4.28899610       1.98130630       5.57884994
Si       0.13234875       8.58416203      14.02208563
Si      -4.43591281       5.59935089      14.46919325
Si      -9.71473467       4.31570590      14.21595399
Si      -0.24184452      10.41478033      11.73632711
Si      11.62558540       2.75915375      -3.93164186
Si       6.70055809       5.97149074       4.12564515
Si       0.14997056       7.13889940       3.90025325
24
Lattice="16.125807383757294 2.083455654549697 -9.1317742334244 -7.495086990891338 6.830103653296002 6.521103402025168 -10.888139215189424 2.658605971054615 19.15936164173017" Properties=species:S:1:pos:R:3 unique_starting_index=90 config_type=initial n_minim_iter=12 stress="-0.00012426519561476097 0.00021364892625730522 0.00022187580582673554 0.00021364892625730522 -3.048508789153003e-05 6.282958579579753e-07 0.00022187580582673554 6.282958579579753e-07 -0.00021027634143817197" pbc="T T T"
Si       6.39216267       3.53845909       5.76569211
Si      -4.03122877       1.55049835       4.70656815
Si       5.44515330       8.54570253       3.70329389
Si      -3.22236318       1.56066119       4.07060199
Si       0.11562562       6.63097688      14.50402820
Si     -15.62811483       7.10648011      21.76841913
Si      -3.23899143       2.09891111       5.07731746
Si       0.21752516       8.14241929      13.17661875
Si     -15.80915274       8.91548672      21.49740430
Si       5.68899019       5.82418139       4.48827001
Si       0.33604521       6.47295131       1.92776220
Si       5.45473012       8.09644340       2.88450614
Si       4.37285643       9.95982123       1.26118555
Si       2.47998877       5.78516967       8.81768801
Si      -4.26639729       3.92897214       3.51611292
Si     -16.66625424       8.85923811      22.04221848
Si      -4.29192297       1.98024450       5.57543596
Si       0.12538350       8.57830781      14.00607279
Si      -4.44264091       5.59507283      14.45689478
Si      -9.72082983       4.31338166      14.20512044
Si      -0.24758246      10.41075624      11.72261994
Si      11.62855179       2.75786575      -3.92980216
Si       6.70104507       5.96927065       4.11721087
Si       0.14873625       7.13796014       3.89492346
24
Lattice="16.13525416977114 2.0778611294358567 -9.13783700429321 -7.504076734233822 6.8311729125758704 6.521746462136125 -10.903573858252622 2.659568127712718 19.157955693555163" Properties=species:S:1:pos:R:3 unique_starting_index=90 config_type=initial n_minim_iter=13 stress="5.008778516973113e-05 -7.43985500152037e-05 -0.0001914853431671709 -7.43985500152037e-05 -0.0001280412524407881 1.538283102791226e-05 -0.0001914853431671709 1.538283102791226e-05 0.00011470220460448142" pbc="T T T"
Si       6.38980578       3.53384580       5.75827387
Si      -4.03705580       1.55036233       4.70730114
Si       5.44311602       8.54276772       3.69818817
Si      -3.22792468       1.56102532       4.07047062
Si       0.10411737       6.62716158      14.49671770
Si     -15.64842711       7.10787574      21.76774283
Si      -3.24439337       2.09917169       5.07726540
Si       0.20667068       8.13875699      13.16961588
Si     -15.82969552       8.91769026      21.49746153
Si       5.68720080       5.81966073       4.48200765
Si       0.33066046       6.47197844       1.92551620
Si       5.45044342       8.09282842       2.87934117
Si       4.36827569       9.95524796       1.25584367
Si       2.47312845       5.78237193       8.81024711
Si      -4.27172826       3.92989703       3.51716045
Si     -16.68745874       8.86068809      22.04165831
Si      -4.29718496       1.98072238       5.57632106
Si       0.11311690       8.57409142      13.99871544
Si      -4.45448727       5.59343997      14.45382613
Si      -9.73248073       4.31453939      14.20500432
Si      -0.25824137      10.40786271      11.71632670
Si      11.63342393       2.75292295      -3.93327092
Si       6.69953755       5.96527799       4.11046962
Si       0.14472454       7.13705402       3.89251212
24
Lattice="16.13728740936424 2.076029794389296 -9.134893621777861 -7.506483075916386 6.831470797714381 6.518498400502844 -10.906846119146849 2.659444571511751 19.148917065460413" Properties=species:S:1:pos:R:3 unique_starting_index=90 config_type=initial n_minim_iter=14 stress="-8.732297135095979e-05 9.928669697982045e-05 0.00021617336451367579 9.928669697982045e-05 -7.689786031397888e-05 9.594655228552591e-05 0.00021617336451367579 9.594655228552591e-05 7.464166689973897e-05" pbc="T T T"
Si       6.38965388       3.53186251       5.75336656
Si      -4.03951133       1.55002148       4.70556691
Si       5.44415888       8.54161475       3.69569454
Si      -3.23038540       1.56116444       4.06844371
Si       0.10123402       6.62475660      14.48810048
Si     -15.65349014       7.10807440      21.75702673
Si      -3.24600057       2.09937450       5.07489381
Si       0.20453000       8.13646146      13.16155906
Si     -15.83410023       8.91808185      21.48769577
Si       5.68751936       5.81790616       4.47817200
Si       0.32791491       6.47185842       1.92357070
Si       5.44832562       8.09147801       2.87690190
Si       4.36589614       9.95331490       1.25346713
Si       2.47146882       5.78147643       8.80312959
Si      -4.27323781       3.93032928       3.51593764
Si     -16.69249364       8.86059595      22.03084809
Si      -4.29844128       1.98090560       5.57448066
Si       0.10997098       8.57226753      13.99058391
Si      -4.45698259       5.59239636      14.44702062
Si      -9.73423628       4.31466741      14.19890431
Si      -0.26033603      10.40674308      11.70891461
Si      11.63418529       2.75121021      -3.93142111
Si       6.69965579       5.96377625       4.10713849
Si       0.14437708       7.13723262       3.89027341
24
Lattice="16.14441162584749 2.0720071516360012 -9.137021735215349 -7.513686709693681 6.832337631011182 6.51635307439302 -10.919569796595983 2.6592837556043336 19.140545152366037" Properties=species:S:1:pos:R:3 unique_starting_index=90 config_type=initial n_minim_iter=15 stress="-0.00014880411672654566 -7.574679414179599e-05 -0.0003315071743385927 -7.574679414179599e-05 -5.7515855427729026e-05 -5.419497354319901e-05 -0.0003315071743385927 -5.419497354319901e-05 1.8573252582907846e-05" pbc="T T T"
Si       6.38731573       3.52773578       5.74425076
Si      -4.04489308       1.55009459       4.70457821
Si       5.44270541       8.53914490       3.68879028
Si      -3.23540806       1.56140780       4.06692991
Si       0.09109130       6.62052971      14.47617054
Si     -15.67076536       7.10896632      21.74773605
Si      -3.25052960       2.09958369       5.07258586
Si       0.19570772       8.13291729      13.14963252
Si     -15.85042194       8.91890213      21.47959321
Si       5.68568677       5.81469782       4.47046461
Si       0.32278097       6.47138943       1.92025159
Si       5.44409249       8.08775396       2.87111698
Si       4.36127581       9.95019748       1.24816532
Si       2.46546775       5.77911741       8.79221646
Si      -4.27749259       3.93112355       3.51539814
Si     -16.71018221       8.86118245      22.02188192
Si      -4.30283281       1.98141500       5.57339953
Si       0.09971675       8.56781019      13.97953139
Si      -4.46675152       5.59046998      14.43901850
Si      -9.74345681       4.31511378      14.19397968
Si      -0.26869648      10.40391629      11.69821428
Si      11.63734606       2.74738710      -3.93352317
Si       6.69770840       5.96048812       4.09988318
Si       0.14141279       7.13704694       3.88672257
24
Lattice="16.1481345226387 2.0696613511622286 -9.129136593656316 -7.516049281151358 6.832944506467716 6.511486215188653 -10.92001351320163 2.660548800615703 19.128587641363236" Properties=species:S:1:pos:R:3 unique_starting_index=90 config_type=initial n_minim_iter=16 stress="1.2960554627320858e-05 7.076191843234154e-05 0.0003400558565436655 7.076191843234154e-05 4.352244056369367e-05 0.0001263512399714066 0.0003400558565436655 0.0001263512399714066 1.6901430228781864e-05" pbc="T T T"
Si       6.39074704       3.52593430       5.74137751
Si      -4.04658431       1.55029864       4.70190165
Si       5.44573444       8.53857541       3.68763063
Si      -3.23732623       1.56152174       4.06445748
Si       0.09258300       6.61938232      14.46813614
Si     -15.67368787       7.11087631      21.73294969
Si      -3.25132788       2.09978557       5.06945232
Si       0.19753353       8.13227347      13.14225497
Si     -15.85245435       8.92064754      21.46617474
Si       5.68879006       5.81375755       4.46885806
Si       0.32073145       6.47134763       1.91873879
Si       5.44448534       8.08582041       2.87075404
Si       4.36055185       9.94863090       1.24828580
Si       2.46736684       5.77892947       8.78600446
Si      -4.27930050       3.93169786       3.51323711
Si     -16.71284709       8.86249814      22.00737736
Si      -4.30334963       1.98198599       5.57080377
Si       0.10125224       8.56694675      13.97236964
Si      -4.46584178       5.59051396      14.43153714
Si      -9.74369060       4.31646571      14.18556200
Si      -0.26685799      10.40315806      11.69151075
Si      11.64049848       2.74488865      -3.92785243
Si       6.70064922       5.95960498       4.09930768
Si       0.14252889       7.13759860       3.88540154
24
Lattice="16.159535729941588 2.0655762847696657 -9.135977643068436 -7.526050256090411 6.83191388641079 6.510889322058896 -10.938006258113877 2.657787272891719 19.125331058476267" Properties=species:S:1:pos:R:3 unique_starting_index=90 config_type=initial n_minim_iter=17 stress="4.764168747697091e-05 -8.166690859989606e-05 -9.06253723723692e-05 -8.166690859989606e-05 -6.161363692322993e-05 -7.383198072787904e-05 -9.06253723723692e-05 -7.383198072787904e-05 0.00023455281139767066" pbc="T T T"
Si       6.38868753       3.51940500       5.73142987
Si      -4.05286765       1.54995835       4.70233385
Si       5.44400326       8.53260955       3.67917762
Si      -3.24354006       1.56053040       4.06438008
Si       0.07948755       6.61191219      14.45746769
Si     -15.69760975       7.10799169      21.72939148
Si      -3.25735607       2.09848643       5.06845488
Si       0.18568869       8.12522627      13.13258189
Si     -15.87608461       8.91810340      21.46371745
Si       5.68687430       5.80844718       4.46084993
Si       0.31466422       6.46935907       1.91439511
Si       5.43993000       8.07908617       2.86223579
Si       4.35582143       9.94359898       1.24168009
Si       2.46023512       5.77408482       8.77465335
Si      -4.28550122       3.93136819       3.51348735
Si     -16.73731490       8.85884936      22.00475695
Si      -4.30906166       1.98149277       5.57196599
Si       0.08823819       8.55963559      13.96217405
Si      -4.47876103       5.58570539      14.42653066
Si      -9.75768599       4.31526613      14.18430098
Si      -0.27753817      10.39650228      11.68134787
Si      11.64614471       2.73975315      -3.93295431
Si       6.69859926       5.95476526       4.09104749
Si       0.13885593       7.13573739       3.88206278
24
Lattice="16.16848462711112 2.0621203024190016 -9.13287549459727 -7.533601431988393 6.8324151052647455 6.505374349908519 -10.95020442343805 2.656994013380485 19.108750087352963" Properties=species:S:1:pos:R:3 unique_starting_index=90 config_type=initial n_minim_iter=18 stress="8.197282885752461e-05 -4.0713790721373315e-05 0.00012796548273668145 -4.0713790721373315e-05 0.00024778495052039213 9.737015248583255e-06 0.00012796548273668145 9.737015248583255e-06 3.475430947691576e-05" pbc="T T T"
Si       6.38903613       3.51496341       5.71979676
Si      -4.05788431       1.54999407       4.69993275
Si       5.44423544       8.52889887       3.67092798
Si      -3.24868203       1.55981178       4.06124591
Si       0.07102500       6.60717936      14.43976292
Si     -15.71400228       7.10711403      21.71027815
Si      -3.26165404       2.09810702       5.06434220
Si       0.17781865       8.12170538      13.11598327
Si     -15.89346325       8.91938009      21.44638890
Si       5.68701096       5.80467379       4.45322577
Si       0.30908723       6.46909506       1.90949610
Si       5.43644009       8.07485674       2.85402550
Si       4.35196395       9.94081769       1.23701555
Si       2.45629958       5.77186918       8.75883223
Si      -4.28992518       3.93188011       3.51133161
Si     -16.75458217       8.85883414      21.98605566
Si      -4.31260230       1.98190466       5.56903377
Si       0.08032332       8.55518539      13.94614379
Si      -4.48663730       5.58341141      14.41336063
Si      -9.76707116       4.31591992      14.17327720
Si      -0.28417064      10.39366500      11.66590306
Si      11.65056988       2.73558000      -3.93213163
Si       6.69837474       5.95219651       4.08342120
Si       0.13738361       7.13621421       3.87794303
24
Lattice="16.175678972934705 2.059778244094832 -9.135737979639197 -7.540222930737285 6.829726699189777 6.502764026966808 -10.961354152461908 2.652212332094962 19.103230603199254" Properties=species:S:1:pos:R:3 unique_starting_index=90 config_type=initial n_minim_iter=19 stress="8.331804969194e-05 -7.41508305913214e-05 9.820554444145919e-05 -7.41508305913214e-05 7.759630492043997e-05 -0.00010366551630954181 9.820554444145919e-05 -0.00010366551630954181 0.00019736149890165958" pbc="T T T"
Si       6.38865116       3.50903309       5.71193834
Si      -4.06234120       1.54868696       4.69968678
Si       5.44246368       8.52265025       3.66293605
Si      -3.25304806       1.55845673       4.05974499
Si       0.06292702       6.59846257      14.42998087
Si     -15.72840328       7.10047734      21.70345788
Si      -3.26498937       2.09658890       5.06320167
Si       0.17000014       8.11296761      13.10643563
Si     -15.90911860       8.91354826      21.44068652
Si       5.68569910       5.79875577       4.44691742
Si       0.30438094       6.46643498       1.90502507
Si       5.43331968       8.06799984       2.84690768
Si       4.34822179       9.93513685       1.23099681
Si       2.45200219       5.76634258       8.74838873
Si      -4.29366464       3.93068439       3.51042426
Si     -16.77014592       8.85177695      21.97931823
Si      -4.31577887       1.98065152       5.56857881
Si       0.07245923       8.54681792      13.93697775
Si      -4.49426334       5.57720657      14.40753279
Si      -9.77579837       4.31234697      14.16999631
Si      -0.29131344      10.38608007      11.65616962
Si      11.65364853       2.73207396      -3.93486184
Si       6.69706693       5.94700702       4.07671607
Si       0.13525225       7.13339893       3.87465827
24
Lattice="16.186687000442983 2.0562569802067747 -9.137350206446477 -7.5496904890207714 6.829039752457659 6.498702209455329 -10.977535122042735 2.649116761058619 19.091470207436522" Properties=species:S:1:pos:R:3 unique_starting_index=90 config_type=initial n_minim_iter=20 stress="0.00012688030450520838 -9.730411481950627e-05 0.00010326904942941503 -9.730411481950627e-05 0.00021222759239510018 -3.9404947780516285e-05 0.00010326904942941503 -3.9404947780516285e-05 0.0001592575043310709" pbc="T T T"
Si       6.38856595       3.50258542       5.70087079
Si      -4.06833777       1.54818819       4.69759019
Si       5.44012407       8.51707956       3.65317884
Si      -3.25947515       1.55786553       4.05683898
Si       0.05212766       6.59133860      14.41436109
Si     -15.74898836       7.09648784      21.69021792
Si      -3.26946332       2.09640232       5.06065612
Si       0.15919110       8.10647133      13.09152478
Si     -15.93121530       8.91085578      21.42957374
Si       5.68372294       5.79366237       4.43724561
Si       0.29822771       6.46520246       1.89940141
Si       5.42910373       8.06274938       2.83738769
Si       4.34391259       9.93009373       1.22341485
Si       2.44626334       5.76196548       8.73282773
Si      -4.29947383       3.93040458       3.50898062
Si     -16.79304108       8.84788587      21.96664624
Si      -4.32050880       1.98084364       5.56665907
Si       0.06230000       8.53978557      13.92193329
Si      -4.50500194       5.57260892      14.39682767
Si      -9.78881694       4.31077205      14.16241765
Si      -0.30083268      10.38010286      11.64190376
Si      11.65881173       2.72767376      -3.93801883
Si       6.69540550       5.94215954       4.06703918
Si       0.13215761       7.13226372       3.87021304
24
Lattice="16.20903015583404 2.0556383951079744 -9.140052932880781 -7.567552397509555 6.820474828267382 6.485905173993804 -11.010275281240977 2.6306773189907307 19.06188444479546" Properties=species:S:1:pos:R:3 unique_starting_index=90 config_type=initial n_minim_iter=21 stress="0.00010314008593603022 5.000996766460253e-05 5.637545580292032e-05 5.000996766460253e-05 3.99266906602645e-05 -5.963417497809656e-05 5.637545580292032e-05 -5.963417497809656e-05 -8.61255732114759e-05" pbc="T T T"
Si       6.38679398       3.48685329       5.67467642
Si      -4.07803692       1.54331893       4.69150067
Si       5.43529894       8.50298412       3.63003826
Si      -3.27203537       1.55340033       4.05006951
Si       0.03123937       6.56787359      14.37661865
Si     -15.79025910       7.07362617      21.65507942
Si      -3.27908132       2.09103028       5.05250119
Si       0.13802458       8.08302563      13.05377922
Si     -15.97449764       8.88980014      21.39774828
Si       5.68023286       5.77939187       4.41273704
Si       0.28720506       6.45933889       1.88467958
Si       5.42252922       8.04791753       2.81363220
Si       4.33695422       9.91598780       1.20162962
Si       2.43504434       5.74705087       8.69670569
Si      -4.30898305       3.92616248       3.50315191
Si     -16.83817855       8.82423885      21.93245518
Si      -4.32906824       1.97616075       5.56016792
Si       0.04171834       8.51632772      13.88435105
Si      -4.52623637       5.55347590      14.36876585
Si      -9.81505473       4.29613384      14.14082556
Si      -0.31859038      10.35865571      11.60462088
Si      11.67012208       2.72218926      -3.94628116
Si       6.69144552       5.92807026       4.04354202
Si       0.12626825       7.12482277       3.85650209
