12
Lattice="6.312672808070284 -0.45288327851733723 -1.850618762069525 -1.9526809259583298 7.807226137567624 0.4066038660558652 -3.8481864531583314 -0.4962564851420691 8.772069881208676" Properties=species:S:1:pos:R:3 unique_starting_index=44 config_type=initial n_minim_iter=1 energy=-1974.9854396754363 free_energy=-1974.9854396754363 pbc="T T T"
Si      -4.26840036       2.74239847       8.12777595
Si      -2.13572200       4.00969918       3.04771866
Si      -3.47502225       6.57703032       6.04199208
Si       0.08788202       3.47175938       4.27070428
Si       2.16118800       5.19669178       5.77785207
Si       2.16225257       2.50623585       4.83920809
Si       4.40087103       3.21918756      -2.78518973
Si      -1.24211740       4.12102173       0.60695455
Si      -1.25926440       0.46249127       7.66067953
Si       5.49303986       2.18805533       0.80805766
Si      -2.90962977       0.67082585       7.02596787
Si      -0.33836463      -0.03421862       6.54467511
12
Lattice="6.30518593193818 -0.4113573925027999 -1.9226368195496295 -1.9172370523262257 7.684271907784705 0.3903340913541986 -3.920775049957791 -0.5476545157814744 8.873978107338838" Properties=species:S:1:pos:R:3 unique_starting_index=44 config_type=initial n_minim_iter=2 stress="-0.011422484432884135 -0.012470064229802387 0.009937623497683748 -0.012470064229802387 -0.04804599244391218 -0.005973717424693027 0.009937623497683748 -0.005973717424693027 -0.007410564232605406" pbc="T T T"
Si      -4.31999924       2.64944014       8.21006159
Si      -2.14161519       3.92797169       3.07127295
Si      -3.49359851       6.43700769       6.08538040
Si       0.06274955       3.40173592       4.28463196
Si       2.11822705       5.10278463       5.77167570
Si       2.11240019       2.45832841       4.84276092
Si       4.42983483       3.20661366      -2.86517563
Si      -1.22547785       4.05447506       0.60272058
Si      -1.32497424       0.41017523       7.72548893
Si       5.47302395       2.17408654       0.74956383
Si      -2.96362865       0.60863249       7.10027405
Si      -0.40378093      -0.06703032       6.59807262
12
Lattice="6.3262899827369825 -0.37133381064819926 -1.9921382003677264 -1.874210627171808 7.709246471069827 0.3996807139936221 -4.008174434355127 -0.5867815597927737 8.96948212150289" Properties=species:S:1:pos:R:3 unique_starting_index=44 config_type=initial n_minim_iter=3 stress="0.013928427136861536 0.007117166517558424 -0.010288935056341387 0.007117166517558424 0.0053314397949526275 -0.026436683803227723 -0.010288935056341387 -0.026436683803227723 0.04485702101350835" pbc="T T T"
Si      -4.38203734       2.62943381       8.29577099
Si      -2.14813302       3.92993886       3.10640241
Si      -3.51148605       6.43659568       6.14720251
Si       0.04895930       3.41350714       4.31028346
Si       2.10064855       5.13333102       5.78290435
Si       2.07849982       2.48050814       4.85584466
Si       4.48722037       3.25646841      -2.93187897
Si      -1.20531389       4.06723185       0.61162325
Si      -1.38988280       0.39084106       7.78918277
Si       5.48441010       2.21605548       0.70063089
Si      -3.02621891       0.57573743       7.17262535
Si      -0.46866736      -0.07836368       6.65138327
12
Lattice="6.29799888093219 -0.25666198510273497 -2.221524156635378 -1.6572792841698867 7.745533142064591 0.6675585837895449 -4.319891647651672 -0.4713108105851329 8.937148769892579" Properties=species:S:1:pos:R:3 unique_starting_index=44 config_type=initial n_minim_iter=4 stress="-0.025805592695278 0.03597862149265082 -0.02940088142166957 0.03597862149265082 0.02045911717932545 0.011238528349786985 -0.02940088142166957 0.011238528349786985 -0.037835548716508696" pbc="T T T"
Si      -4.57586497       2.79310568       8.33724027
Si      -2.14812283       3.99445734       3.23688833
Si      -3.53880097       6.54016646       6.33199515
Si      -0.00679524       3.56268969       4.32927942
Si       1.98089433       5.39098457       5.69467116
Si       1.85096370       2.71286822       4.77058266
Si       4.68129258       3.35992245      -3.00079663
Si      -1.09123827       4.10656220       0.74717767
Si      -1.64073439       0.53270175       7.70205153
Si       5.42176017       2.38585443       0.50625893
Si      -3.24850323       0.62062787       7.15468527
Si      -0.77298374       0.07681091       6.58464436
12
Lattice="6.347777485555624 -0.3006507211386938 -2.262541492124972 -1.7104896697111092 7.760784756643845 0.7294311833294678 -4.3722856912014425 -0.39425036805097163 9.025707663367855" Properties=species:S:1:pos:R:3 unique_starting_index=44 config_type=initial n_minim_iter=5 stress="0.0003503717373465142 0.005585851513258225 -0.028818600665523855 0.005585851513258225 0.016512197047758498 0.023536901726698537 -0.028818600665523855 0.023536901726698537 -0.01305954423057243" pbc="T T T"
Si      -4.64221945       2.88829973       8.42493965
Si      -2.20024592       4.02785526       3.29940625
Si      -3.61711839       6.58873046       6.44000343
Si      -0.01978931       3.59164554       4.40024866
Si       1.95373100       5.41885856       5.76582263
Si       1.80216302       2.75395837       4.83751571
Si       4.73290191       3.33741373      -3.03073604
Si      -1.11621633       4.12857627       0.77959314
Si      -1.66484111       0.57379490       7.77927444
Si       5.43965291       2.35426617       0.50582698
Si      -3.29424283       0.65867990       7.22506639
Si      -0.82256607       0.11731623       6.67116876
12
Lattice="6.288844433413655 -0.2288460176825666 -2.1883041511130923 -1.6258337200130644 7.763365081704963 0.6361534795574301 -4.258406173413343 -0.5104701590085656 8.987423802612229" Properties=species:S:1:pos:R:3 unique_starting_index=44 config_type=initial n_minim_iter=6 stress="-0.0254492844919875 0.030684548660855137 -0.01294587489511606 0.030684548660855137 0.008984598887910469 0.008622013774878937 -0.01294587489511606 0.008622013774878937 -0.017903321283769206" pbc="T T T"
Si      -4.49785314       2.80010344       8.33429540
Si      -2.12705897       3.99203375       3.23836532
Si      -3.47566321       6.51116141       6.34075569
Si       0.08102505       3.56141079       4.38029490
Si       2.05460228       5.39810357       5.73481469
Si       1.83423916       2.75272117       4.84448128
Si       4.73590228       3.43559451      -3.02050324
Si      -1.06121779       4.13555792       0.72287294
Si      -1.55813699       0.47599361       7.76402956
Si       5.43343561       2.39171182       0.54602174
Si      -3.19639387       0.55968269       7.17998099
Si      -0.77495370       0.04357265       6.69507896
12
Lattice="6.392658301820757 -0.23403454901700962 -2.1366608855112363 -1.7153125766494255 7.838719803593773 0.4325715210690975 -4.312430424401121 -0.704708565526934 8.8203617608845" Properties=species:S:1:pos:R:3 unique_starting_index=44 config_type=initial n_minim_iter=7 stress="-0.014491789406621849 -0.03274578583562279 -0.014601550731930611 -0.03274578583562279 0.0212742045288375 -0.02945704286084396 -0.014601550731930611 -0.02945704286084396 -0.031134482255305587" pbc="T T T"
Si      -4.55230750       2.67620140       8.08169089
Si      -2.20207420       3.96120664       3.07140384
Si      -3.57946341       6.42048294       6.05309807
Si       0.09739890       3.48522561       4.23248867
Si       2.04905734       5.27361694       5.48705542
Si       1.81139160       2.65332481       4.66352349
Si       4.83391101       3.56635220      -3.06175785
Si      -1.10801929       4.18440799       0.59572106
Si      -1.57038446       0.25354813       7.61782144
Si       5.49841286       2.33641785       0.47598765
Si      -3.25750958       0.44783971       7.00911001
Si      -0.83250311      -0.16642358       6.60622044
12
Lattice="6.544527942939774 -0.13856805139159442 -2.078572401359811 -1.6463394414177428 7.760617966831327 0.4316968216524833 -4.341201185791225 -0.7407075131404806 8.797085891932849" Properties=species:S:1:pos:R:3 unique_starting_index=44 config_type=initial n_minim_iter=8 stress="0.03670259130808822 -0.030474636818206138 0.016144066085135085 -0.030474636818206138 -0.013827209478725436 -0.022860487924159387 0.016144066085135085 -0.022860487924159387 -0.010784360757277572" pbc="T T T"
Si      -4.51202621       2.62794793       8.04836824
Si      -2.18243511       3.90010693       3.05698159
Si      -3.51997393       6.31302180       6.04209187
Si       0.23519046       3.47636185       4.27705945
Si       2.23975726       5.28638772       5.53661965
Si       1.92305264       2.68535387       4.66889179
Si       5.03727319       3.67552066      -3.02812316
Si      -1.06872878       4.15756474       0.58065767
Si      -1.52357090       0.21096733       7.64754428
Si       5.68375025       2.39630245       0.53254824
Si      -3.27608501       0.45397974       6.97861370
Si      -0.83228920      -0.21454288       6.65212600
12
Lattice="6.490996412437422 -0.08212171004495078 -2.1027786698910584 -1.5336787730653183 7.78483302785344 0.5207731657854541 -4.303399491038698 -0.6953419647979197 8.933492195084833" Properties=species:S:1:pos:R:3 unique_starting_index=44 config_type=initial n_minim_iter=9 stress="0.0005332366637177567 -0.05912715319035748 0.018611834692618692 -0.05912715319035748 -0.04165222035745632 -0.006308514802012251 0.018611834692618692 -0.006308514802012251 0.03673347486754299" pbc="T T T"
Si      -4.37754558       2.70520652       8.19021426
Si      -2.12178595       3.91526237       3.13684426
Si      -3.40460760       6.33266349       6.20637957
Si       0.35210626       3.55474558       4.44545687
Si       2.28749950       5.41459540       5.70233676
Si       1.90204857       2.79111925       4.74107587
Si       5.12000448       3.81465091      -3.05025113
Si      -1.00244409       4.19522982       0.60749330
Si      -1.51301610       0.22771484       7.82791526
Si       5.64990879       2.45853741       0.56826838
Si      -3.24462377       0.55673166       7.07516348
Si      -0.89135998      -0.24267041       6.81151997
12
Lattice="6.721742455996661 0.08737140902197083 -2.1023088134072925 -1.3940654142085602 7.731171373108116 0.5384684167577295 -4.494354754703984 -0.7830590187787869 8.826626171134611" Properties=species:S:1:pos:R:3 unique_starting_index=44 config_type=initial n_minim_iter=10 stress="0.05113644508634412 -0.032660551254506565 0.03565368041183065 -0.032660551254506565 -0.03345005504111236 0.009575864119173001 0.03565368041183065 0.009575864119173001 0.0406086516419807" pbc="T T T"
Si      -4.41827446       2.64067763       8.08298277
Si      -2.11008557       3.84672114       3.10117566
Si      -3.38439651       6.21177274       6.15055376
Si       0.53039462       3.59387790       4.46865370
Si       2.45992072       5.49712835       5.62325744
Si       1.97852681       2.88196522       4.64510508
Si       5.46819589       4.00615624      -3.04277379
Si      -0.93258369       4.18310692       0.57339439
Si      -1.61801298       0.15562334       7.78578811
Si       5.86712906       2.57273476       0.51881851
Si      -3.36579373       0.53764844       6.97004237
Si      -1.00231795      -0.33856051       6.74785278
12
Lattice="6.829768010808336 0.19795814177238802 -2.1348254087433483 -1.2872033772906195 7.741928137418675 0.5549486881021135 -4.649208998408494 -0.851258465536609 8.723504943893088" Properties=species:S:1:pos:R:3 unique_starting_index=44 config_type=initial n_minim_iter=11 stress="0.049834850754292996 -0.01782891760694768 0.01728112241903891 -0.01782891760694768 -0.010941292447896597 0.017499686650209973 0.01728112241903891 0.017499686650209973 0.009713916556526963" pbc="T T T"
Si      -4.44385103       2.63305285       8.00375469
Si      -2.09224111       3.82239428       3.05863878
Si      -3.38676579       6.16327229       6.09254743
Si       0.62248673       3.62972417       4.42584890
Si       2.49652336       5.59089414       5.51909800
Si       1.97811335       2.97532669       4.52333845
Si       5.65313760       4.12071350      -3.03427704
Si      -0.87512038       4.20547718       0.53285348
Si      -1.76856382       0.09413091       7.72404527
Si       5.95464112       2.67063941       0.45885739
Si      -3.44932992       0.51487022       6.86536511
Si      -1.11170461      -0.42366814       6.65177375
12
Lattice="6.709909996176079 0.25751089359857965 -2.080119584041845 -1.1761229239744433 7.775710135358564 0.5358660953038793 -4.507362332344339 -0.8942141516053137 8.725298742640348" Properties=species:S:1:pos:R:3 unique_starting_index=44 config_type=initial n_minim_iter=12 stress="0.02461288129277517 0.009166863383695007 0.031693478089987806 0.009166863383695007 0.0010064932614223207 0.01636156385846119 0.031693478089987806 0.01636156385846119 0.025989351484504236" pbc="T T T"
Si      -4.21195422       2.66350532       8.02264838
Si      -1.95075555       3.83324447       3.03159909
Si      -3.21862305       6.15368940       6.09338199
Si       0.72349328       3.68851366       4.44237377
Si       2.50436570       5.64261384       5.55921122
Si       2.05591212       3.04786785       4.56166919
Si       5.57130227       4.13298378      -2.98004181
Si      -0.80521117       4.23201153       0.49144298
Si      -1.74298267       0.06690017       7.79101240
Si       5.86607784       2.73435946       0.51609094
Si      -3.31758701       0.49444224       6.85884031
Si      -1.01029230      -0.47680116       6.65191985
12
Lattice="6.709712635092288 0.2974221635037252 -2.092759086670887 -1.1376499422092712 7.804190526437395 0.49432681622421637 -4.538081720407062 -0.9684895065998571 8.708892319315275" Properties=species:S:1:pos:R:3 unique_starting_index=44 config_type=initial n_minim_iter=13 stress="0.020911159970624215 0.015023833764400085 0.022602797561526056 0.015023833764400085 0.024572541708655783 -0.0024917032669480314 0.022602797561526056 -0.0024917032669480314 0.030587568070102236" pbc="T T T"
Si      -4.18836736       2.63819713       7.99551289
Si      -1.91573449       3.83332404       2.99492788
Si      -3.21306047       6.12324158       6.05075926
Si       0.72942866       3.69372326       4.39220489
Si       2.50871174       5.67869178       5.48808765
Si       2.06995144       3.05956455       4.52983436
Si       5.59784344       4.15538299      -3.00347447
Si      -0.78586070       4.24664616       0.45776495
Si      -1.81003382      -0.00323360       7.77672520
Si       5.85193466       2.76775338       0.48328519
Si      -3.34328943       0.43501725       6.83805119
Si      -1.04727176      -0.55127885       6.63457044
12
Lattice="6.742346011549191 0.3355764100469813 -2.145043213433927 -1.09979826071422 7.80472540009981 0.5082711869747747 -4.641303904849693 -0.9963211742117951 8.68952055153025" Properties=species:S:1:pos:R:3 unique_starting_index=44 config_type=initial n_minim_iter=14 stress="0.009879921894358221 0.013211883006992248 0.0016048721706121696 0.013211883006992248 0.007177591597667441 -0.004332656184759705 0.0016048721706121696 -0.004332656184759705 0.008767343185726438" pbc="T T T"
Si      -4.22852396       2.64723079       7.98164647
Si      -1.90519858       3.83494836       2.98631535
Si      -3.25165580       6.10129470       6.04387900
Si       0.71487601       3.70613617       4.34869416
Si       2.47230234       5.69020051       5.42360686
Si       2.04947199       3.09128629       4.48700105
Si       5.68248708       4.17194780      -3.04183979
Si      -0.76570842       4.25080247       0.45671884
Si      -1.92216682      -0.02774487       7.74334627
Si       5.85324352       2.80323299       0.42550200
Si      -3.42779301       0.41345264       6.82100320
Si      -1.14346931      -0.58023131       6.60998745
12
Lattice="6.72473082616492 0.3404667238716107 -2.20067370661572 -1.0815327960276604 7.835846465733635 0.535966055441248 -4.707337561448983 -0.992818913614108 8.691790020690332" Properties=species:S:1:pos:R:3 unique_starting_index=44 config_type=initial n_minim_iter=15 stress="-0.014151146562988737 -0.007576800119838549 -0.013365657295730202 -0.007576800119838549 5.862921797304711e-05 -0.004760024714349037 -0.013365657295730202 -0.004760024714349037 -0.005650168051955291" pbc="T T T"
Si      -4.20493768       2.70331475       8.00763458
Si      -1.84052572       3.88692762       2.98577964
Si      -3.30386473       6.12429659       6.06777561
Si       0.66564657       3.72916197       4.30420955
Si       2.38848171       5.72378147       5.38440530
Si       2.01194942       3.13394953       4.48106814
Si       5.75961088       4.11831656      -3.13072111
Si      -0.75287132       4.26257556       0.48125558
Si      -2.05564164      -0.02786703       7.72266592
Si       5.75877934       2.82736770       0.37798462
Si      -3.52049562       0.41522193       6.84209343
Si      -1.23393759      -0.57934575       6.61141601
12
Lattice="6.783314109323324 0.400127697487765 -2.2499292163029807 -1.0235090784254803 7.8352932619628985 0.5549707848035156 -4.815065806589733 -1.0276167626966046 8.70412401156648" Properties=species:S:1:pos:R:3 unique_starting_index=44 config_type=initial n_minim_iter=16 stress="-0.009368761237739146 -0.008544938394661866 -0.012634949447366803 -0.008544938394661866 0.009710352592089988 -0.0022972202641696423 -0.012634949447366803 -0.0022972202641696423 0.008191399952810248" pbc="T T T"
Si      -4.16850691       2.72238017       8.04499961
Si      -1.76212101       3.91079046       2.98456106
Si      -3.36148431       6.09808035       6.11422613
Si       0.66679018       3.74437157       4.26918090
Si       2.39798999       5.74954116       5.33298455
Si       2.03518897       3.18768190       4.46411627
Si       5.97182056       4.09124357      -3.21945086
Si      -0.71390090       4.24784745       0.48318845
Si      -2.20851945      -0.03082323       7.71328965
Si       5.70471837       2.88249221       0.34317448
Si      -3.64053065       0.40346264       6.87303774
Si      -1.35509964      -0.59691405       6.64101231
12
Lattice="6.840216148972148 0.44792660899409414 -2.267703316211779 -0.9880761251655795 7.84333552519372 0.5361641387513164 -4.902261613919225 -1.084990769325325 8.636120243402395" Properties=species:S:1:pos:R:3 unique_starting_index=44 config_type=initial n_minim_iter=17 stress="-0.011488188440641211 -0.014245259552177862 -0.005552101831029387 -0.014245259552177862 -0.0054298718922278656 -0.006066807021302392 -0.005552101831029387 -0.006066807021302392 -0.0005422464953471548" pbc="T T T"
Si      -4.13786480       2.71266540       7.98628711
Si      -1.70065376       3.92037445       2.93529979
Si      -3.42602172       6.06966175       6.07807517
Si       0.67618194       3.73756195       4.19039689
Si       2.39539110       5.76261508       5.24361804
Si       2.08025547       3.22645234       4.37515955
Si       6.18283007       4.07704886      -3.27300555
Si      -0.67970310       4.23310906       0.45545254
Si      -2.34498650      -0.05731544       7.62647437
Si       5.63983963       2.92781643       0.31373230
Si      -3.76791068       0.35068412       6.84033498
Si      -1.44423511      -0.63419417       6.60738365
12
Lattice="6.879632282360666 0.4611506647761147 -2.294509965050159 -0.9801184156558129 7.846083529325004 0.5543275319665254 -4.970305399441472 -1.0846770791559623 8.616512061789864" Properties=species:S:1:pos:R:3 unique_starting_index=44 config_type=initial n_minim_iter=18 stress="-0.005872278503093495 -0.0036565235802458788 -0.009932141377576333 -0.0036565235802458788 -0.006461995301509946 -0.011105669885784502 -0.009932141377576333 -0.011105669885784502 0.007128078641928268" pbc="T T T"
Si      -4.16999225       2.71423535       7.97154330
Si      -1.70620032       3.93007074       2.93838250
Si      -3.49227697       6.07594921       6.10248912
Si       0.66845294       3.73002690       4.16375692
Si       2.39047166       5.77812297       5.21582077
Si       2.12224344       3.26417663       4.31193522
Si       6.29818273       4.05428223      -3.29053253
Si      -0.66061336       4.21428044       0.45800384
Si      -2.42963577      -0.02605555       7.57519753
Si       5.60641220       2.95331873       0.30111104
Si      -3.85576492       0.34465511       6.84707012
Si      -1.50243832      -0.61591064       6.59530559
12
Lattice="6.9299694350614685 0.466250262104824 -2.270752077131129 -0.9845568569886506 7.877473055036284 0.5578854879435562 -4.992247585843369 -1.0816964322181863 8.534360012206214" Properties=species:S:1:pos:R:3 unique_starting_index=44 config_type=initial n_minim_iter=19 stress="0.012239091576231905 -0.0028129609732534242 -0.00028898749414327295 -0.0028129609732534242 0.0161642431399116 -0.010863623944786184 -0.00028898749414327295 -0.010863623944786184 0.011329663604551718" pbc="T T T"
Si      -4.16951555       2.72403394       7.88594833
Si      -1.74398629       3.94510968       2.92419662
Si      -3.54253740       6.10588120       6.08122506
Si       0.71444109       3.72787977       4.13507580
Si       2.42148616       5.81686906       5.19895324
Si       2.19611757       3.30247638       4.22711401
Si       6.42938625       4.08942645      -3.25518243
Si      -0.63060357       4.20164812       0.43881744
Si      -2.48300700       0.00453353       7.46948432
Si       5.59649728       2.98625909       0.32353158
Si      -3.88557896       0.33445787       6.79537778
Si      -1.52585154      -0.60727334       6.55361014
12
Lattice="6.937306273564353 0.46712012233814887 -2.265261683514674 -0.9674375130607398 7.882732200713264 0.6178599861089056 -4.997801251966494 -1.022177662485881 8.490315039507351" Properties=species:S:1:pos:R:3 unique_starting_index=44 config_type=initial n_minim_iter=20 stress="0.014578521141871591 0.00909086641537689 -0.009818344135406899 0.00909086641537689 0.010701338488048034 -0.0010936697885959633 -0.009818344135406899 -0.0010936697885959633 0.01673509593534787" pbc="T T T"
Si      -4.12497193       2.77320376       7.83330325
Si      -1.79523162       3.96363214       2.96751371
Si      -3.57091018       6.13706976       6.12971170
Si       0.76412143       3.73061669       4.15077787
Si       2.45169961       5.87466555       5.23899835
Si       2.26285452       3.35389137       4.17894171
Si       6.49063143       4.11742727      -3.20153532
Si      -0.58214585       4.15580322       0.45018082
Si      -2.56687699       0.09631342       7.38095843
Si       5.57043657       3.03242384       0.36836287
Si      -3.89695643       0.38166070       6.79167499
Si      -1.53275699      -0.54446247       6.53330473
12
Lattice="6.897570623968705 0.5017583379651942 -2.198310958560095 -0.9058081252597896 7.960285778017119 0.6063403747833094 -4.917740579192906 -1.044564541318709 8.378200261250955" Properties=species:S:1:pos:R:3 unique_starting_index=44 config_type=initial n_minim_iter=21 stress="0.023995651988674583 -0.0007802602102409494 -0.008400389490236153 -0.0007802602102409494 0.08098202046406469 0.0038952999549933987 -0.008400389490236153 0.0038952999549933987 0.01216283178758138" pbc="T T T"
Si      -3.89498144       2.82098686       7.66924638
Si      -1.79758757       4.00553604       2.96570329
Si      -3.52938179       6.13705249       6.08927258
Si       0.88813869       3.74850046       4.13871673
Si       2.49963713       5.95912500       5.21450789
Si       2.38166429       3.44997385       4.10828309
Si       6.55459316       4.25016185      -3.12664668
Si      -0.48328646       4.12412093       0.40632306
Si      -2.62149267       0.14796684       7.24866587
Si       5.53369100       3.12829092       0.43974849
Si      -3.87822914       0.34386186       6.71360313
Si      -1.53183385      -0.59495069       6.49982591
