18
Lattice="4.971383561315844 0.0 0.0 0.0 9.58964858880341 -8.973696905104686e-18 0.0 1.1680310144794779e-17 12.482042895063524" Properties=species:S:1:pos:R:3 unique_starting_index=36 config_type=initial n_minim_iter=1 energy=-2918.8924568132816 free_energy=-2918.8924568132816 pbc="T T T"
Si       4.55046025       9.42981603      11.40356195
Si       0.42092331       9.42981603       1.07848094
Si       2.90661509       9.42981603       5.16254051
Si       2.06476847       9.42981603       7.31950239
Si       0.05421400       1.74178342       1.61173213
Si       4.91716956       1.74178342      10.87031076
Si       2.43147778       1.74178342       7.85275358
Si       2.53990578       1.74178342       4.62928931
Si       0.85479442       6.96949921       2.82767958
Si       4.11658914       6.96949921       9.65436331
Si       1.63089736       6.96949921       9.06870103
Si       3.34048621       6.96949921       3.41334186
Si       2.36222322       0.35707846       1.03527644
Si       2.60916034       0.35707846      11.44676645
Si       0.12346856       0.35707846       7.27629789
Si       4.84791500       0.35707846       5.20574500
Si      -0.00000000       7.78694406       0.00000000
Si       2.48569178       7.78694406       6.24102145
18
Lattice="5.103338824374892 0.0 0.0 0.0 9.463830831485474 -8.822473456743894e-18 0.0 1.2164832624772079e-17 12.951963689788327" Properties=species:S:1:pos:R:3 unique_starting_index=36 config_type=initial n_minim_iter=2 stress="0.019519314410748115 1.1435358826054772e-15 1.253019820536567e-16 1.1435358826054772e-15 -0.005744165993666323 -5.479299491432744e-16 1.253019820536567e-16 -5.479299491432744e-16 0.019738206939986323" pbc="T T T"
Si       4.66502059       9.29170860      11.83764227
Si       0.43831824       9.29170860       1.11432142
Si       2.98998765       9.29170860       5.36166042
Si       2.11335117       9.29170860       7.59030327
Si       0.06489006       1.71319212       1.66587475
Si       5.03844877       1.71319212      11.28608894
Si       2.48677935       1.71319212       8.14185660
Si       2.61655947       1.71319212       4.81010709
Si       0.88541979       6.86915487       2.92578702
Si       4.21791904       6.86915487      10.02617667
Si       1.66624962       6.86915487       9.40176886
Si       3.43708920       6.86915487       3.55019483
Si       2.36885293       0.38289606       1.02277355
Si       2.73448590       0.38289606      11.92919014
Si       0.18281649       0.38289606       7.49875539
Si       4.92052234       0.38289606       5.45320830
Si      -0.00000000       7.68183080       0.00000000
Si       2.55166941       7.68183080       6.47598184
18
Lattice="5.107647482459517 0.0 0.0 0.0 9.437660836854791 -9.060819478589159e-18 0.0 1.1894272814517692e-17 13.025375259636593" Properties=species:S:1:pos:R:3 unique_starting_index=36 config_type=initial n_minim_iter=3 stress="-0.02781722541268413 2.9729471025805473e-16 -2.949380131914675e-16 2.9729471025805473e-16 -0.01366313585742672 -1.180724570195458e-15 -2.949380131914675e-16 -1.180724570195458e-15 0.003265677325902241" pbc="T T T"
Si       4.66590442       9.25849232      11.90799799
Si       0.44174306       9.25849232       1.11737727
Si       2.99556680       9.25849232       5.39531036
Si       2.11208068       9.25849232       7.63006490
Si       0.06947988       1.70614810       1.67215002
Si       5.03816761       1.70614810      11.35322524
Si       2.48434386       1.70614810       8.18483765
Si       2.62330362       1.70614810       4.84053761
Si       0.89034042       6.84597637       2.93881522
Si       4.21730706       6.84597637      10.08656004
Si       1.66348332       6.84597637       9.45150285
Si       3.44416416       6.84597637       3.57387241
Si       2.34337830       0.39655459       1.00173643
Si       2.76426918       0.39655459      12.02363883
Si       0.21044544       0.39655459       7.51442406
Si       4.89720204       0.39655459       5.51095120
Si      -0.00000000       7.65917844       0.00000000
Si       2.55382374       7.65917844       6.51268763
18
Lattice="5.1591238347509245 0.0 0.0 0.0 9.490111757860914 -9.55945214311114e-18 0.0 1.1288440423532785e-17 13.0077437036308" Properties=species:S:1:pos:R:3 unique_starting_index=36 config_type=initial n_minim_iter=4 stress="-0.005583772746026232 1.5340428205731044e-15 7.254556681560788e-16 1.5340428205731044e-15 0.012924175333073213 -1.1692012895164773e-15 7.254556681560788e-16 -1.1692012895164773e-15 -0.0015633720535568546" pbc="T T T"
Si       4.71343199       9.30420833      11.89459516
Si       0.44569184       9.30420833       1.11314854
Si       3.02525376       9.30420833       5.39072331
Si       2.13387007       9.30420833       7.61702040
Si       0.07339846       1.71444258       1.66771792
Si       5.08572537       1.71444258      11.34002578
Si       2.50616346       1.71444258       8.17158977
Si       2.65296038       1.71444258       4.83615393
Si       0.90243972       6.88141126       2.93309716
Si       4.25668412       6.88141126      10.07464654
Si       1.67712220       6.88141126       9.43696901
Si       3.48200163       6.88141126       3.57077469
Si       2.35085502       0.40921119       0.98268867
Si       2.80826882       0.40921119      12.02505503
Si       0.22870690       0.40921119       7.48656052
Si       4.93041694       0.40921119       5.52118318
Si      -0.00000000       7.69991831       0.00000000
Si       2.57956192       7.69991831       6.50387185
18
Lattice="5.181312973406168 0.0 0.0 0.0 9.43432500954171 -9.918043764846394e-18 0.0 1.0724134471058426e-17 12.973534906874068" Properties=species:S:1:pos:R:3 unique_starting_index=36 config_type=initial n_minim_iter=5 stress="0.014627912411433673 6.628291053776403e-16 7.378146996071236e-16 6.628291053776403e-16 -0.00736641880220484 3.766102438082393e-16 7.378146996071236e-16 3.766102438082393e-16 -0.004639394187838185" pbc="T T T"
Si       4.73688930       9.24715322      11.86509547
Si       0.44442368       9.24715322       1.10843944
Si       3.03508016       9.24715322       5.37832801
Si       2.14623281       9.24715322       7.59520689
Si       0.07600100       1.70260548       1.66163563
Si       5.10531197       1.70260548      11.31189927
Si       2.51465548       1.70260548       8.14840309
Si       2.66665749       1.70260548       4.82513182
Si       0.90834493       6.83987377       2.92534005
Si       4.27296805       6.83987377      10.04819485
Si       1.68231156       6.83987377       9.41210751
Si       3.49900141       6.83987377       3.56142740
Si       2.35451570       0.41260591       0.97375194
Si       2.82679728       0.41260591      11.99978296
Si       0.23614079       0.41260591       7.46051940
Si       4.94517218       0.41260591       5.51301551
Si      -0.00000000       7.65346627       0.00000000
Si       2.59065649       7.65346627       6.48676745
18
Lattice="5.157390207411434 0.0 0.0 0.0 9.420118633634605 -1.1102302548389308e-17 0.0 9.680746413001544e-18 13.441749352810529" Properties=species:S:1:pos:R:3 unique_starting_index=36 config_type=initial n_minim_iter=6 stress="0.026507117056948807 1.6653775027644472e-15 1.968856823177035e-15 1.6653775027644472e-15 -4.405134196340502e-05 -1.5796352841810612e-15 1.968856823177035e-15 -1.5796352841810612e-15 0.01153870971149137" pbc="T T T"
Si       4.76717593       9.21117391      12.31365968
Si       0.39021428       9.21117391       1.12808967
Si       2.96890939       9.21117391       5.59278500
Si       2.18848082       9.21117391       7.84896435
Si       0.10972416       1.67579479       1.69600644
Si       5.04766605       1.67579479      11.74574291
Si       2.46897095       1.67579479       8.41688112
Si       2.68841926       1.67579479       5.02486823
Si       0.93368150       6.81759063       3.03774133
Si       4.22370871       6.81759063      10.40400802
Si       1.64501360       6.81759063       9.75861601
Si       3.51237660       6.81759063       3.68313334
Si       2.26823314       0.49016263       0.95209302
Si       2.88915707       0.49016263      12.48965634
Si       0.31046197       0.49016263       7.67296769
Si       4.84692824       0.49016263       5.76878166
Si      -0.00000000       7.60215585       0.00000000
Si       2.57869510       7.60215585       6.72087468
18
Lattice="5.062425331469368 0.0 0.0 0.0 9.476918433188473 -1.3540210739105243e-17 0.0 6.80665893653929e-18 13.645066236137033" Properties=species:S:1:pos:R:3 unique_starting_index=36 config_type=initial n_minim_iter=7 stress="0.03157214143916756 8.927208232608267e-16 -9.582024040295613e-16 8.927208232608267e-16 0.014581948949361176 4.987051328361598e-16 -9.582024040295613e-16 4.987051328361598e-16 0.024042138746774282" pbc="T T T"
Si       4.76015603       9.21810262      12.52951802
Si       0.30226930       9.21810262       1.11554822
Si       2.83348196       9.21810262       5.70698490
Si       2.22894337       9.21810262       7.93808134
Si       0.16618860       1.66104740       1.68059414
Si       4.89623673       1.66104740      11.96447209
Si       2.36502407       1.66104740       8.50312726
Si       2.69740126       1.66104740       5.14193898
Si       0.96735623       6.84263041       3.10758312
Si       4.09506911       6.84263041      10.53748312
Si       1.56385644       6.84263041       9.93011623
Si       3.49856889       6.84263041       3.71495000
Si       2.12285768       0.61099881       0.93159349
Si       2.93956765       0.61099881      12.71347275
Si       0.40835499       0.61099881       7.75412661
Si       4.65407035       0.61099881       5.89093963
Si      -0.00000000       7.59129425       0.00000000
Si       2.53121267       7.59129425       6.82253312
18
Lattice="4.996332261464712 0.0 0.0 0.0 9.474172406007908 -1.6474951649649102e-17 0.0 2.996261672246878e-18 13.652375756578865" Properties=species:S:1:pos:R:3 unique_starting_index=36 config_type=initial n_minim_iter=8 stress="0.010875204272935871 -8.128620554856022e-16 4.454632881096706e-16 -8.128620554856022e-16 0.01933311980680663 1.839777445572351e-15 4.454632881096706e-16 1.839777445572351e-15 0.02421285420831286" pbc="T T T"
Si       4.80602454       9.16057950      12.55651790
Si       0.19030772       9.16057950       1.09585785
Si       2.68847385       9.16057950       5.73033003
Si       2.30785841       9.16057950       7.92204573
Si       0.25860786       1.61641961       1.61138077
Si       4.73772440       1.61641961      12.04099498
Si       2.23955827       1.61641961       8.43756865
Si       2.75677399       1.61641961       5.21480710
Si       1.04030431       6.81352447       3.15012451
Si       3.95602796       6.81352447      10.50225125
Si       1.45786182       6.81352447       9.97631239
Si       3.53847044       6.81352447       3.67606337
Si       1.92404080       0.79377349       0.86021656
Si       3.07229146       0.79377349      12.79215919
Si       0.57412533       0.79377349       7.68640444
Si       4.42220693       0.79377349       5.96597132
Si      -0.00000000       7.47543472       0.00000000
Si       2.49816613       7.47543472       6.82618788
18
Lattice="5.000794063487069 0.0 0.0 0.0 9.431882382537683 -1.6845165721533714e-17 0.0 2.5732028064983376e-18 13.695602120656442" Properties=species:S:1:pos:R:3 unique_starting_index=36 config_type=initial n_minim_iter=9 stress="0.0035724483585223123 4.562738785553156e-16 -3.561078141550916e-16 4.562738785553156e-16 0.015390139768328323 9.86850567724299e-16 -3.561078141550916e-16 9.86850567724299e-16 0.019280285127206895" pbc="T T T"
Si       4.82177178       9.10785870      12.60002419
Si       0.17902228       9.10785870       1.09557793
Si       2.67941931       9.10785870       5.75222313
Si       2.32137475       9.10785870       7.94337899
Si       0.27232219       1.60698530       1.60825139
Si       4.72847188       1.60698530      12.08735073
Si       2.22807485       1.60698530       8.45605245
Si       2.77271922       1.60698530       5.23954967
Si       1.05533273       6.77789468       3.16666950
Si       3.94546133       6.77789468      10.52893262
Si       1.44506430       6.77789468      10.01447056
Si       3.55572976       6.77789468       3.68113156
Si       1.89994370       0.81511522       0.84389655
Si       3.10085037       0.81511522      12.85170557
Si       0.60045334       0.81511522       7.69169761
Si       4.40034073       0.81511522       6.00390451
Si      -0.00000000       7.43082824       0.00000000
Si       2.50039703       7.43082824       6.84780106
18
Lattice="5.092209916588141 0.0 0.0 0.0 9.080122867119869 -1.7480449677522224e-17 0.0 1.8218095301614775e-18 13.785070967461731" Properties=species:S:1:pos:R:3 unique_starting_index=36 config_type=initial n_minim_iter=10 stress="0.025284195715971423 2.613301096245395e-16 -7.094431669743906e-16 2.613301096245395e-16 -0.018893073169954793 2.8372065764925375e-16 -7.094431669743906e-16 2.8372065764925375e-16 -0.02222616549970995" pbc="T T T"
Si       4.89443448       8.74183318      12.67686705
Si       0.19777544       8.74183318       1.10820391
Si       2.74388040       8.74183318       5.78433157
Si       2.34832952       8.74183318       8.00073940
Si       0.28932766       1.57217227       1.61932151
Si       4.80288226       1.57217227      12.16574946
Si       2.25677730       1.57217227       8.51185700
Si       2.83543262       1.57217227       5.27321397
Si       1.11473680       6.51020409       3.21207112
Si       3.97747311       6.51020409      10.57299985
Si       1.43136815       6.51020409      10.10460660
Si       3.66084176       6.51020409       3.68046437
Si       1.90232111       0.80240989       0.77090360
Si       3.18988881       0.80240989      13.01416737
Si       0.64378385       0.80240989       7.66343908
Si       4.44842606       0.80240989       6.12163189
Si      -0.00000000       7.15059349       0.00000000
Si       2.54610496       7.15059349       6.89253548
18
Lattice="5.163318640697461 0.0 0.0 0.0 8.482711707069912 -2.0159085722030365e-17 0.0 1.6461569889369651e-19 14.87621370898111" Properties=species:S:1:pos:R:3 unique_starting_index=36 config_type=initial n_minim_iter=11 stress="0.07022247927655494 -4.5601682533010263e-17 5.162936873424422e-17 -4.5601682533010263e-17 -0.0039042024275713016 1.4486548044984165e-16 5.162936873424422e-17 1.4486548044984165e-16 0.009066223767793598" pbc="T T T"
Si       4.98145858       8.11077721      13.63340026
Si       0.18186006       8.11077721       1.24281345
Si       2.76351938       8.11077721       6.19529341
Si       2.39979926       8.11077721       8.68092030
Si       0.32515177       1.51650976       1.72019789
Si       4.83816687       1.51650976      13.15601582
Si       2.25650755       1.51650976       9.15830474
Si       2.90681109       1.51650976       5.71790897
Si       1.24899097       6.04908782       3.54991193
Si       3.91432767       6.04908782      11.32630178
Si       1.33266835       6.04908782      10.98801878
Si       3.83065029       6.04908782       3.88819492
Si       1.82297404       0.80257481       0.63968761
Si       3.34034460       0.80257481      14.23652610
Si       0.75868528       0.80257481       8.07779447
Si       4.40463336       0.80257481       6.79841924
Si      -0.00000000       6.65604550       0.00000000
Si       2.58165932       6.65604550       7.43810685
18
Lattice="5.115725343009482 0.0 0.0 0.0 8.243604001522879 -2.071313745207263e-17 0.0 1.2106404536733558e-20 15.198017836879933" Properties=species:S:1:pos:R:3 unique_starting_index=36 config_type=initial n_minim_iter=12 stress="0.04050526298832989 -6.724928654214659e-16 2.0786443296038744e-18 -6.724928654214659e-16 -0.014408115782786543 1.7094955013295612e-16 2.0786443296038744e-18 1.7094955013295612e-16 0.018487905817975405" pbc="T T T"
Si       4.95984061       7.86093292      13.88751141
Si       0.15588474       7.86093292       1.31050643
Si       2.71374741       7.86093292       6.28850249
Si       2.40197793       7.86093292       8.90951534
Si       0.32144456       1.50338693       1.70570862
Si       4.79428078       1.50338693      13.49230921
Si       2.23641811       1.50338693       9.30471754
Si       2.87930723       1.50338693       5.89330030
Si       1.30628437       5.86663584       3.67743705
Si       3.80944097       5.86663584      11.52058078
Si       1.25157830       5.86663584      11.27644597
Si       3.86414705       5.86663584       3.92157187
Si       1.76683605       0.79194460       0.57777300
Si       3.34888929       0.79194460      14.62024484
Si       0.79102662       0.79194460       8.17678191
Si       4.32469872       0.79194460       7.02123592
Si      -0.00000000       6.45152013       0.00000000
Si       2.55786267       6.45152013       7.59900892
18
Lattice="5.084404369327539 0.0 0.0 0.0 8.333284212428863 -1.9991026728770625e-17 0.0 4.5376654761999055e-22 14.661796819144554" Properties=species:S:1:pos:R:3 unique_starting_index=36 config_type=initial n_minim_iter=13 stress="0.0017223086101406646 1.762712421456318e-15 -5.004086255985295e-18 1.762712421456318e-15 -0.037297055257483655 -7.18589718441279e-16 -5.004086255985295e-18 -7.18589718441279e-16 -0.018123833158288354" pbc="T T T"
Si       4.94108168       7.96675359      13.34895692
Si       0.14332269       7.96675359       1.31283990
Si       2.68552487       7.96675359       6.01805851
Si       2.39887950       7.96675359       8.64373831
Si       0.26755273       1.55990346       1.52992016
Si       4.81685164       1.55990346      13.13187666
Si       2.27464945       1.55990346       8.86081857
Si       2.80975492       1.55990346       5.80097825
Si       1.36879256       5.93232742       3.60675404
Si       3.71561181       5.93232742      11.05504278
Si       1.17340962       5.93232742      10.93765245
Si       3.91099475       5.93232742       3.72414437
Si       1.73049739       0.73694635       0.59572040
Si       3.35390697       0.73694635      14.06607642
Si       0.81170479       0.73694635       7.92661881
Si       4.27269958       0.73694635       6.73517801
Si      -0.00000000       6.52426228       0.00000000
Si       2.54220218       6.52426228       7.33089841
18
Lattice="5.117980043919139 0.0 0.0 0.0 8.439150594265175 -1.9861726873215536e-17 0.0 8.775739805149257e-23 14.566759543238556" Properties=species:S:1:pos:R:3 unique_starting_index=36 config_type=initial n_minim_iter=14 stress="0.02562692873767353 1.8793810916108966e-15 -4.895041862965977e-16 1.8793810916108966e-15 -0.035634820388272065 -7.663571068205169e-16 -4.895041862965977e-16 -7.663571068205169e-16 0.0021631427716741736" pbc="T T T"
Si       4.97163597       8.08419779      13.23336645
Si       0.14634407       8.08419779       1.33339310
Si       2.70533410       8.08419779       5.94998668
Si       2.41264595       8.08419779       8.61677287
Si       0.23075289       1.60413689       1.44413086
Si       4.88722716       1.60413689      13.12262869
Si       2.32823713       1.60413689       8.72751063
Si       2.78974291       1.60413689       5.83924891
Si       1.42482591       6.00852482       3.61537552
Si       3.69315413       6.00852482      10.95138403
Si       1.13416411       6.00852482      10.89875529
Si       3.98381593       6.00852482       3.66800425
Si       1.71165875       0.69191539       0.60832001
Si       3.40632129       0.69191539      13.95843953
Si       0.84733127       0.69191539       7.89169979
Si       4.27064877       0.69191539       6.67505976
Si      -0.00000000       6.63296615       0.00000000
Si       2.55899002       6.63296615       7.28337977
18
Lattice="5.082435722981816 0.0 0.0 0.0 8.558109789946885 -1.9769857798630682e-17 0.0 3.7535287040038473e-23 14.499353445309541" Properties=species:S:1:pos:R:3 unique_starting_index=36 config_type=initial n_minim_iter=15 stress="-0.005686620168190265 1.843437925246182e-15 -1.2310490941642931e-15 1.843437925246182e-15 -0.028344454335209317 -7.448477326116306e-16 -1.2310490941642931e-15 -7.448477326116306e-16 -0.0029745847651311058" pbc="T T T"
Si       4.93801389       8.21093009      13.15803323
Si       0.14442183       8.21093009       1.34132022
Si       2.68563969       8.21093009       5.90835651
Si       2.39679603       8.21093009       8.59099694
Si       0.21090522       1.63259772       1.40711645
Si       4.87153050       1.63259772      13.09223700
Si       2.33031264       1.63259772       8.65679317
Si       2.75212308       1.63259772       5.84256028
Si       1.42658640       6.09553975       3.60453182
Si       3.65584932       6.09553975      10.89482163
Si       1.11463146       6.09553975      10.85420854
Si       3.96780426       6.09553975       3.64514491
Si       1.71367775       0.67022825       0.62081951
Si       3.36875797       0.67022825      13.87853394
Si       0.82754011       0.67022825       7.87049623
Si       4.25489561       0.67022825       6.62885722
Si      -0.00000000       6.74745928       0.00000000
Si       2.54121786       6.74745928       7.24967672
18
Lattice="5.066254987489425 0.0 0.0 0.0 8.681425611418785 -1.9892775916105908e-17 0.0 9.790347493838405e-24 14.589486623412641" Properties=species:S:1:pos:R:3 unique_starting_index=36 config_type=initial n_minim_iter=16 stress="-0.007553842003107633 1.7988608100873924e-15 -1.9354263442326255e-15 1.7988608100873924e-15 0.01006832976807654 -1.9017553542932224e-15 -1.9354263442326255e-15 -1.9017553542932224e-15 0.029083470873500387" pbc="T T T"
Si       4.93645173       8.33841804      13.20788322
Si       0.12980326       8.33841804       1.38160341
Si       2.66293076       8.33841804       5.91313990
Si       2.40332423       8.33841804       8.67634672
Si       0.18240764       1.67318758       1.33078225
Si       4.88384734       1.67318758      13.25870438
Si       2.35071985       1.67318758       8.62552556
Si       2.71553514       1.67318758       5.96396106
Si       1.47918524       6.17589784       3.65388916
Si       3.58706975       6.17589784      10.93559747
Si       1.05394226       6.17589784      10.94863247
Si       4.01231273       6.17589784       3.64085415
Si       1.69465551       0.64478275       0.58544207
Si       3.37159947       0.64478275      14.00404455
Si       0.83847198       0.64478275       7.88018538
Si       4.22778301       0.64478275       6.70930124
Si      -0.00000000       6.87735872       0.00000000
Si       2.53312749       6.87735872       7.29474331
18
Lattice="5.0819622351312725 0.0 0.0 0.0 8.71485668769514 -1.973353625445089e-17 0.0 4.575878266740444e-24 14.4726963277819" Properties=species:S:1:pos:R:3 unique_starting_index=36 config_type=initial n_minim_iter=17 stress="-0.0004817709360559153 1.7368261681597377e-15 -1.6844955625869672e-15 1.7368261681597377e-15 0.021595844099110386 -2.536616226024093e-15 -1.6844955625869672e-15 -2.536616226024093e-15 0.020778950842956553" pbc="T T T"
Si       4.95408215       8.37206577      13.09058391
Si       0.12788009       8.37206577       1.38211242
Si       2.66886121       8.37206577       5.85423574
Si       2.41310103       8.37206577       8.61846059
Si       0.16355954       1.69267024       1.28285481
Si       4.91840270       1.69267024      13.18984152
Si       2.37742158       1.69267024       8.51920298
Si       2.70454065       1.69267024       5.95349335
Si       1.50977319       6.19369780       3.62821565
Si       3.57218905       6.19369780      10.84448068
Si       1.03120793       6.19369780      10.86456381
Si       4.05075431       6.19369780       3.60813251
Si       1.68987891       0.62928714       0.56401853
Si       3.39208332       0.62928714      13.90867780
Si       0.85110221       0.62928714       7.80036669
Si       4.23086003       0.62928714       6.67232963
Si      -0.00000000       6.92261113       0.00000000
Si       2.54098112       6.92261113       7.23634816
18
Lattice="5.106017294328686 0.0 0.0 0.0 8.665895136661325 -1.9590745738698895e-17 0.0 2.298906041099069e-24 14.367971622474043" Properties=species:S:1:pos:R:3 unique_starting_index=36 config_type=initial n_minim_iter=18 stress="0.013738916868674681 1.0269667676672732e-15 -9.745231712398956e-16 1.0269667676672732e-15 0.014037085668000611 -1.0825700771364252e-15 -9.745231712398956e-16 -1.0825700771364252e-15 0.007287518147742717" pbc="T T T"
Si       4.98341514       8.32342558      13.00164787
Si       0.12260215       8.32342558       1.36632376
Si       2.67561080       8.32342558       5.81766205
Si       2.43040650       8.32342558       8.55030957
Si       0.13923217       1.69348879       1.23957928
Si       4.96678512       1.69348879      13.12839235
Si       2.41377647       1.69348879       8.42356509
Si       2.69224082       1.69348879       5.94440654
Si       1.54282570       6.14956366       3.59075157
Si       3.56319159       6.14956366      10.77722005
Si       1.01018295       6.14956366      10.77473738
Si       4.09583435       6.14956366       3.59323424
Si       1.67629275       0.62306367       0.52589904
Si       3.42972455       0.62306367      13.84207258
Si       0.87671590       0.62306367       7.70988485
Si       4.22930140       0.62306367       6.65808677
Si      -0.00000000       6.89032101       0.00000000
Si       2.55300865       6.89032101       7.18398581
18
Lattice="5.11223244020684 0.0 0.0 0.0 8.593956143619485 -1.946230676000593e-17 0.0 1.2065497749114623e-24 14.273773091607374" Properties=species:S:1:pos:R:3 unique_starting_index=36 config_type=initial n_minim_iter=19 stress="0.00739808455394122 1.895999326563734e-15 -1.0660373155831188e-15 1.895999326563734e-15 -0.009511932949066654 -1.7041559841907774e-15 -1.0660373155831188e-15 -1.7041559841907774e-15 0.0015889983655516936" pbc="T T T"
Si       4.99313497       8.24933247      12.93076854
Si       0.11909747       8.24933247       1.34300455
Si       2.67521369       8.24933247       5.79388200
Si       2.43701875       8.24933247       8.47989109
Si       0.12651140       1.67499435       1.24078404
Si       4.98572104       1.67499435      13.03298905
Si       2.42960482       1.67499435       8.37767059
Si       2.68262762       1.67499435       5.89610250
Si       1.53721577       6.09510560       3.53266770
Si       3.57501667       6.09510560      10.74110539
Si       1.01890045       6.09510560      10.66955425
Si       4.09333199       6.09510560       3.60421885
Si       1.66825149       0.63760175       0.50594028
Si       3.44398095       0.63760175      13.76783281
Si       0.88786473       0.63760175       7.64282683
Si       4.22436771       0.63760175       6.63094626
Si      -0.00000000       6.81938369       0.00000000
Si       2.55611622       6.81938369       7.13688655
18
Lattice="5.1159337625013634 0.0 0.0 0.0 8.564746759302318 -1.9242424870080658e-17 0.0 6.7680589791060475e-25 14.112510094190561" Properties=species:S:1:pos:R:3 unique_starting_index=36 config_type=initial n_minim_iter=20 stress="0.01956464768672514 4.76925781632128e-16 6.60625498305863e-16 4.76925781632128e-16 -0.002580259932783673 -8.265077563570138e-16 6.60625498305863e-16 -8.265077563570138e-16 -0.003262757546954077" pbc="T T T"
Si       5.00298926       8.21713948      12.78618660
Si       0.11294450       8.21713948       1.32632349
Si       2.67091138       8.21713948       5.72993155
Si       2.44502238       8.21713948       8.38257854
Si       0.08962792       1.67210999       1.20721158
Si       5.02630585       1.67210999      12.90529852
Si       2.46833896       1.67210999       8.26346663
Si       2.64759480       1.67210999       5.84904347
Si       1.54259710       6.07071319       3.45305310
Si       3.57333666       6.07071319      10.65945699
Si       1.01536978       6.07071319      10.50930815
Si       4.10056398       6.07071319       3.60320194
Si       1.65183419       0.64402193       0.48171166
Si       3.46409957       0.64402193      13.63079843
Si       0.90613269       0.64402193       7.53796671
Si       4.20980107       0.64402193       6.57454339
Si      -0.00000000       6.78907611       0.00000000
Si       2.55796688       6.78907611       7.05625505
18
Lattice="5.105792920789417 0.0 0.0 0.0 8.558089001192835 -1.9134451619827797e-17 0.0 4.06976667465031e-25 14.033321712241829" Properties=species:S:1:pos:R:3 unique_starting_index=36 config_type=initial n_minim_iter=21 stress="0.00550286794776563 1.1081847686057255e-15 3.266226409381625e-16 1.1081847686057255e-15 -0.0034685369543702 -1.1949750263778801e-15 3.266226409381625e-16 -1.1949750263778801e-15 -0.006384153377889549" pbc="T T T"
Si       4.98373785       8.20422236      12.71823340
Si       0.12205507       8.20422236       1.31508831
Si       2.67495153       8.20422236       5.70157254
Si       2.43084139       8.20422236       8.33174917
Si       0.06865797       1.66410091       1.20259562
Si       5.03713495       1.66410091      12.83072609
Si       2.48423849       1.66410091       8.21925648
Si       2.62155444       1.66410091       5.81406523
Si       1.51949164       6.07068848       3.39539683
Si       3.58630128       6.07068848      10.63792488
Si       1.03340482       6.07068848      10.41205768
Si       4.07238810       6.07068848       3.62126403
Si       1.65477366       0.65677415       0.48582301
Si       3.45101926       0.65677415      13.54749870
Si       0.89812280       0.65677415       7.50248387
Si       4.20767012       0.65677415       6.53083785
Si      -0.00000000       6.77438201       0.00000000
Si       2.55289646       6.77438201       7.01666086
