22
Lattice="4.658735630301517 0.5435193478191342 2.5393327562469246 2.720303370801728 6.666688406975724 2.1745541379857594 8.632032374805991 0.7796890962736672 32.88621460749978" Properties=species:S:1:pos:R:3 unique_starting_index=40 config_type=initial n_minim_iter=1 energy=-4076.4866806286764 free_energy=-4076.4866806286764 pbc="T T T"
Si      12.83373782       4.41864440      32.92862973
Si       4.29344071       3.47641153      10.48868946
Si       8.24976808       1.23712815      17.67208624
Si       8.51564855       3.11098557      29.92841953
Si      10.52575143       3.92500721      31.66743938
Si       8.91779795       6.75025971      18.25741823
Si       4.65184675       2.38536628      10.07020578
Si       8.47605323       6.50943040      19.11913722
Si       3.73120091       2.60936518       1.12655731
Si      12.41132341       4.30603389      33.72799451
Si       8.74454315       1.85176767      24.74167938
Si       7.36725307       4.74800446      24.05590211
Si       1.49738150       2.88378528      -0.43554426
Si       5.54424648       0.80395686      17.12693134
Si      10.50395215       3.04847778      31.89552878
Si      11.12840146       6.93609643      19.76292462
Si       6.89851363       3.91540899      11.21648400
Si       8.70509459       7.69710359      18.44440627
Si       4.89098876       3.38521312       9.41118897
Si       7.93694757       0.62444292      18.37697542
Si      12.80534424       3.28753328      33.22267176
Si       6.98067299       2.84195677      11.29683948
22
Lattice="4.658686709256051 0.5434403572374672 2.53935622074671 2.7201522186476357 6.666599913022969 2.1746106942783943 8.631934539017568 0.7797077311064172 32.88650344129332" Properties=species:S:1:pos:R:3 unique_starting_index=40 config_type=initial n_minim_iter=2 stress="-0.0006955124965609246 -7.356892110721074e-05 -0.0003400016775927214 -7.356892110721074e-05 -2.1914178717636824e-05 -3.282007195452078e-05 -0.0003400016775927214 -3.282007195452078e-05 -0.00018809678118098856" pbc="T T T"
Si      12.83355986       4.41857106      32.92890019
Si       4.29340292       3.47636860      10.48876935
Si       8.24968649       1.23702766      17.67233315
Si       8.51545065       3.11097757      29.92874706
Si      10.52567232       3.92503830      31.66767465
Si       8.91753577       6.75015283      18.25760027
Si       4.65173348       2.38527590      10.07024525
Si       8.47578197       6.50935363      19.11930758
Si       3.73115704       2.60927286       1.12650561
Si      12.41116165       4.30591508      33.72833091
Si       8.74443085       1.85167836      24.74191129
Si       7.36709988       4.74798678      24.05612587
Si       1.49721243       2.88379356      -0.43545733
Si       5.54416024       0.80393836      17.12707035
Si      10.50379613       3.04829312      31.89586046
Si      11.12816573       6.93602259      19.76317252
Si       6.89835384       3.91528268      11.21662061
Si       8.70485312       7.69697933      18.44460580
Si       4.89088531       3.38509691       9.41137182
Si       7.93692991       0.62439733      18.37708290
Si      12.80514962       3.28749144      33.22297304
Si       6.98058951       2.84195103      11.29692209
22
Lattice="4.658730043632819 0.5434412042089763 2.539380396653793 2.720179086720638 6.666600054006158 2.174630720440347 8.63212021211319 0.7797278139604403 32.8866191649612" Properties=species:S:1:pos:R:3 unique_starting_index=40 config_type=initial n_minim_iter=3 stress="7.656679362682597e-05 1.4407327007885344e-05 6.897083304361957e-05 1.4407327007885344e-05 1.0272514964088173e-05 1.5658371108366275e-05 6.897083304361957e-05 1.5658371108366275e-05 5.5637477296338204e-05" pbc="T T T"
Si      12.83377735       4.41859144      32.92903228
Si       4.29347702       3.47637460      10.48881226
Si       8.24981272       1.23703640      17.67241407
Si       8.51562124       3.11099572      29.92885922
Si      10.52587124       3.92505973      31.66779370
Si       8.91766525       6.75016309      18.25768361
Si       4.65180307       2.38527875      10.07028588
Si       8.47591042       6.50936543      19.11939020
Si       3.73118968       2.60927169       1.12651994
Si      12.41137933       4.30593237      33.72846609
Si       8.74458696       1.85168969      24.74200813
Si       7.36724317       4.74800202      24.05621646
Si       1.49721694       2.88379604      -0.43544787
Si       5.54426378       0.80394844      17.12713431
Si      10.50399054       3.04830544      31.89598497
Si      11.12831872       6.93603696      19.76327002
Si       6.89844399       3.91528684      11.21667853
Si       8.70498387       7.69698877      18.44469006
Si       4.89095591       3.38509863       9.41142117
Si       7.93705904       0.62440800      18.37715630
Si      12.80536575       3.28751263      33.22310663
Si       6.98068404       2.84196198      11.29697656
22
Lattice="4.658877313879022 0.543275320327475 2.5391715530704246 2.7200736931246543 6.66636777914192 2.1744172110860585 8.631680289917249 0.7791203349089476 32.88530129380612" Properties=species:S:1:pos:R:3 unique_starting_index=40 config_type=initial n_minim_iter=4 stress="0.0002213503721293623 0.00014533865116541045 -7.760286123631589e-05 0.00014533865116541045 -0.0002861371395281583 3.105563165251897e-05 -7.760286123631589e-05 3.105563165251897e-05 -0.0004971875824423702" pbc="T T T"
Si      12.83354726       4.41792459      32.92754450
Si       4.29353562       3.47608357      10.48821805
Si       8.24965240       1.23662523      17.67174556
Si       8.51513944       3.11038530      29.92771619
Si      10.52552561       3.92422029      31.66642902
Si       8.91739702       6.74962543      18.25680587
Si       4.65163484       2.38484033      10.06962117
Si       8.47555070       6.50887784      19.11843712
Si       3.73127806       2.60899214       1.12620638
Si      12.41107301       4.30507435      33.72697155
Si       8.74434396       1.85096236      24.74097654
Si       7.36688584       4.74751484      24.05513704
Si       1.49726905       2.88382276      -0.43555475
Si       5.54410238       0.80360567      17.12642996
Si      10.50345032       3.04760611      31.89482216
Si      11.12805200       6.93550291      19.76221435
Si       6.89833321       3.91484839      11.21617187
Si       8.70478836       7.69639892      18.44383064
Si       4.89088280       3.38462539       9.41120949
Si       7.93692665       0.62393177      18.37621764
Si      12.80502794       3.28679126      33.22162910
Si       6.98074746       2.84182742      11.29627303
22
Lattice="4.658748028130044 0.5430301332329094 2.5394437795865232 2.719672426811934 6.666583543258648 2.1745581184062956 8.631574450825033 0.7782587329167084 32.88869065065141" Properties=species:S:1:pos:R:3 unique_starting_index=40 config_type=initial n_minim_iter=5 stress="-3.733076377016852e-06 -3.957700274853866e-06 -2.854064518268498e-05 -3.957700274853866e-06 8.857258983409493e-05 1.053927851118787e-06 -2.854064518268498e-05 1.053927851118787e-06 0.0001229703605978245" pbc="T T T"
Si      12.83320045       4.41714320      32.93089587
Si       4.29343251       3.47592143      10.48919994
Si       8.24942021       1.23606980      17.67365210
Si       8.51486568       3.10971297      29.93081488
Si      10.52524135       3.92336857      31.66964397
Si       8.91686324       6.74932047      18.25862516
Si       4.65140219       2.38449195      10.07052333
Si       8.47502921       6.50859683      19.12032069
Si       3.73106855       2.60886058       1.12623367
Si      12.41075142       4.30416956      33.73040207
Si       8.74415253       1.85014722      24.74354107
Si       7.36658547       4.74711958      24.05753326
Si       1.49712037       2.88400834      -0.43565825
Si       5.54401558       0.80314103      17.12820512
Si      10.50308305       3.04678870      31.89820724
Si      11.12745069       6.93511767      19.76414332
Si       6.89798751       3.91454735      11.21735518
Si       8.70428157       7.69614425      18.44567380
Si       4.89064232       3.38432811       9.41230489
Si       7.93676468       0.62326339      18.37808188
Si      12.80467854       3.28588074      33.22501906
Si       6.98053376       2.84160921      11.29733303
22
Lattice="4.658726789532847 0.5426790430052864 2.539583778924071 2.7193006104342774 6.666155291218645 2.1745073212184955 8.632724393014533 0.7770806289493274 32.88846619028123" Properties=species:S:1:pos:R:3 unique_starting_index=40 config_type=initial n_minim_iter=6 stress="-0.00019660866838095608 -0.0001286170929875259 0.00026352120128444583 -0.0001286170929875259 -0.00013939903122852789 3.477076469542896e-05 0.00026352120128444583 3.477076469542896e-05 -0.00012906762840424077" pbc="T T T"
Si      12.83406762       4.41570798      32.93084425
Si       4.29374462       3.47532793      10.48905032
Si       8.24991578       1.23538448      17.67377877
Si       8.51571671       3.10857333      29.93064345
Si      10.52626145       3.92180785      31.66939675
Si       8.91689202       6.74823415      18.25856111
Si       4.65155215       2.38374671      10.07036701
Si       8.47512998       6.50755458      19.12016414
Si       3.73085919       2.60843321       1.12630852
Si      12.41176594       4.30253131      33.73017411
Si       8.74489522       1.84885441      24.74350744
Si       7.36718317       4.74613761      24.05728822
Si       1.49690862       2.88403010      -0.43568694
Si       5.54452021       0.80250239      17.12809585
Si      10.50390125       3.04541309      31.89817942
Si      11.12764212       6.93389127      19.76402070
Si       6.89810904       3.91386902      11.21752759
Si       8.70436657       7.69503102      18.44559017
Si       4.89075459       3.38356912       9.41248558
Si       7.93729730       0.62231869      18.37816077
Si      12.80556668       3.28438017      33.22484901
Si       6.98073113       2.84098869      11.29718948
22
Lattice="4.658814435024633 0.542623348119444 2.5394077860071387 2.7193057041901985 6.666223057329501 2.1742804321265274 8.631507594038792 0.7763447374850495 32.8888576746908" Properties=species:S:1:pos:R:3 unique_starting_index=40 config_type=initial n_minim_iter=7 stress="0.00011233889003501931 2.782972625061977e-05 -0.00012222787531233816 2.782972625061977e-05 9.654900228520097e-05 3.1288306566646495e-05 -0.00012222787531233816 3.1288306566646495e-05 2.8453370709290857e-05" pbc="T T T"
Si      12.83307106       4.41511151      32.93098874
Si       4.29352531       3.47513165      10.48898108
Si       8.24941160       1.23512502      17.67386286
Si       8.51463230       3.10800151      29.93093574
Si      10.52530309       3.92103991      31.66952267
Si       8.91631620       6.74795339      18.25844000
Si       4.65125431       2.38342064      10.07026647
Si       8.47448238       6.50725803      19.12006315
Si       3.73093547       2.60839262       1.12610551
Si      12.41074685       4.30175411      33.73028881
Si       8.74407883       1.84815614      24.74371235
Si       7.36635698       4.74573094      24.05739862
Si       1.49698327       2.88423883      -0.43585398
Si       5.54389835       0.80217009      17.12823406
Si      10.50273460       3.04469501      31.89849324
Si      11.12716712       6.93360725      19.76372941
Si       6.89790599       3.91376003      11.21750358
Si       8.70383952       7.69477357      18.44547275
Si       4.89053667       3.38330187       9.41252625
Si       7.93671181       0.62183850      18.37826666
Si      12.80449021       3.28367469      33.22495013
Si       6.98051103       2.84082645      11.29693198
22
Lattice="4.658775779619069 0.5421944514419224 2.539576995003946 2.719075229160093 6.665436497028947 2.1738491031349017 8.632459406719384 0.7731562423801088 32.88972220405826" Properties=species:S:1:pos:R:3 unique_starting_index=40 config_type=initial n_minim_iter=8 stress="-4.96881782379398e-05 0.00010075639334219495 -4.7015198549089346e-07 0.00010075639334219495 -0.0003440291927324893 -0.00013225517221528987 -4.7015198549089346e-07 -0.00013225517221528987 0.00020807493008700935" pbc="T T T"
Si      12.83391125       4.41166525      32.93173379
Si       4.29387782       3.47374192      10.48897303
Si       8.24962061       1.23340308      17.67453436
Si       8.51540557       3.10508932      29.93154836
Si      10.52629170       3.91740831      31.66987696
Si       8.91639415       6.74560732      18.25855364
Si       4.65141733       2.38186690      10.07031442
Si       8.47460064       6.50487125      19.12018153
Si       3.73072669       2.60786379       1.12610292
Si      12.41166433       4.29783778      33.73100032
Si       8.74467953       1.84515410      24.74448084
Si       7.36693575       4.74318782      24.05763939
Si       1.49683103       2.88441063      -0.43610430
Si       5.54432880       0.80059884      17.12873271
Si      10.50332871       3.04119153      31.89942948
Si      11.12722257       6.93122104      19.76366552
Si       6.89814173       3.91252997      11.21795376
Si       8.70405353       7.69242316      18.44552065
Si       4.89072119       3.38182259       9.41277734
Si       7.93701807       0.61977570      18.37881233
Si      12.80520612       3.28008825      33.22572536
Si       6.98067738       2.83941618      11.29678434
22
Lattice="4.658828693019983 0.5420064033499122 2.5395056857441465 2.7187811061785037 6.665863787808274 2.1737991754642056 8.633120819652472 0.7729521612626121 32.887751061667856" Properties=species:S:1:pos:R:3 unique_starting_index=40 config_type=initial n_minim_iter=9 stress="-2.4537183506531765e-06 -2.4239399751969695e-05 5.947726365485666e-05 -2.4239399751969695e-05 0.0002380753876258023 -3.25879267264406e-05 5.947726365485666e-05 -3.25879267264406e-05 -0.00016956513758959737" pbc="T T T"
Si      12.83445439       4.41163567      32.92987408
Si       4.29401139       3.47381998      10.48838571
Si       8.24986509       1.23323432      17.67365692
Si       8.51589280       3.10514727      29.92977502
Si      10.52689839       3.91724260      31.66791654
Si       8.91638752       6.74581934      18.25757783
Si       4.65152161       2.38170808      10.06973313
Si       8.47460010       6.50509485      19.11913692
Si       3.73059059       2.60782906       1.12615356
Si      12.41222981       4.29761362      33.72907506
Si       8.74511582       1.84476540      24.74312466
Si       7.36723550       4.74340232      24.05620794
Si       1.49671229       2.88478443      -0.43608249
Si       5.54462714       0.80055892      17.12774395
Si      10.50377939       3.04100578      31.89770573
Si      11.12726147       6.93146811      19.76253120
Si       6.89826685       3.91269372      11.21754505
Si       8.70406601       7.69278758      18.44454257
Si       4.89081867       3.38179307       9.41233523
Si       7.93735671       0.61945285      18.37772984
Si      12.80574944       3.27985235      33.22380058
Si       6.98081816       2.83934124      11.29601536
22
Lattice="4.658833081102332 0.5417789390993214 2.5395453516144975 2.718393685083462 6.665417825721471 2.1740468943564473 8.632850271970117 0.7734542506037883 32.888598726019794" Properties=species:S:1:pos:R:3 unique_starting_index=40 config_type=initial n_minim_iter=10 stress="2.4216216977903e-05 -5.534406692809113e-05 -1.653786446749601e-05 -5.534406692809113e-05 -6.549576197421381e-05 5.427327905071002e-05 -1.653786446749601e-05 5.427327905071002e-05 3.734403575681502e-05" pbc="T T T"
Si      12.83407629       4.41183158      32.93076487
Si       4.29385264       3.47362152      10.48878696
Si       8.24960762       1.23330442      17.67432296
Si       8.51550726       3.10554064      29.93058246
Si      10.52667353       3.91721619      31.66865376
Si       8.91577655       6.74556449      18.25816933
Si       4.65133985       2.38138636      10.07004103
Si       8.47392702       6.50490788      19.11979353
Si       3.73039973       2.60740348       1.12630139
Si      12.41182305       4.29755775      33.73007689
Si       8.74485240       1.84458348      24.74389539
Si       7.36685173       4.74358682      24.05689920
Si       1.49667229       2.88483815      -0.43614990
Si       5.54438684       0.80084398      17.12820173
Si      10.50327541       3.04120920      31.89884025
Si      11.12675509       6.93133763      19.76305706
Si       6.89809023       3.91260506      11.21816279
Si       8.70348942       7.69255564      18.44517009
Si       4.89071434       3.38148579       9.41265832
Si       7.93724445       0.61947414      18.37810464
Si      12.80537534       3.27994073      33.22463642
Si       6.98069299       2.83911856      11.29606644
22
Lattice="4.658820540545413 0.5417612974904167 2.5395644711919685 2.718495129793966 6.665600110731025 2.1737783875262293 8.633385367747731 0.772233980040726 32.88807777655557" Properties=species:S:1:pos:R:3 unique_starting_index=40 config_type=initial n_minim_iter=11 stress="-9.4439033151385e-05 0.00016879702913248794 6.900730388029052e-05 0.00016879702913248794 0.00010123308763657483 -8.138873633901128e-05 6.900730388029052e-05 -8.138873633901128e-05 -1.3704077892106798e-05" pbc="T T T"
Si      12.83465808       4.41091177      32.93018961
Si       4.29413132       3.47321164      10.48864601
Si       8.24970401       1.23290678      17.67429572
Si       8.51601101       3.10462757      29.92999995
Si      10.52738748       3.91602540      31.66780148
Si       8.91595205       6.74529151      18.25767049
Si       4.65149077       2.38091550      10.06991528
Si       8.47405063       6.50460372      19.11932961
Si       3.73043548       2.60731046       1.12625360
Si      12.41246784       4.29640474      33.72949000
Si       8.74521691       1.84332128      24.74363188
Si       7.36735325       4.74295328      24.05630748
Si       1.49672405       2.88526852      -0.43642055
Si       5.54457390       0.80030832      17.12792493
Si      10.50357028       3.04007170      31.89862857
Si      11.12705296       6.93116456      19.76241040
Si       6.89827847       3.91243619      11.21816293
Si       8.70377614       7.69225585      18.44457632
Si       4.89109137       3.38119166       9.41229621
Si       7.93746843       0.61873616      18.37782451
Si      12.80593432       3.27884701      33.22413004
Si       6.98102973       2.83884171      11.29557509
22
Lattice="4.6589551956872395 0.5412376403731193 2.5394186907226546 2.7178197821654777 6.665066278053743 2.1737762810392964 8.632871377087556 0.771668330202464 32.887550818533654" Properties=species:S:1:pos:R:3 unique_starting_index=40 config_type=initial n_minim_iter=12 stress="0.00020098511795293888 -0.0003112100240510671 -6.131406628888222e-05 -0.0003112100240510671 -4.9987724328274864e-05 -0.0002974002367406899 -6.131406628888222e-05 -0.0002974002367406899 -3.9726619999238505e-05" pbc="T T T"
Si      12.83397393       4.40983340      32.92962602
Si       4.29377936       3.47251107      10.48866165
Si       8.24926717       1.23242718      17.67413398
Si       8.51527234       3.10403617      29.92955774
Si      10.52690410       3.91489396      31.66693815
Si       8.91502690       6.74442675      18.25736650
Si       4.65118483       2.38023670      10.06986393
Si       8.47305142       6.50385261      19.11905838
Si       3.73036153       2.60658155       1.12616439
Si      12.41180763       4.29518163      33.72889378
Si       8.74478637       1.84204836      24.74335742
Si       7.36663820       4.74237126      24.05587956
Si       1.49654274       2.88539582      -0.43654789
Si       5.54424245       0.79997589      17.12760004
Si      10.50275433       3.03907726      31.89851239
Si      11.12628057       6.93016195      19.76173850
Si       6.89787437       3.91163800      11.21822186
Si       8.70280088       7.69131298      18.44420244
Si       4.89100278       3.38053231       9.41192267
Si       7.93721823       0.61789841      18.37740339
Si      12.80541958       3.27774092      33.22349847
Si       6.98106908       2.83809074      11.29498240
22
Lattice="4.658880101562968 0.5415343407428607 2.5394910584072674 2.7177903433530957 6.665223196891162 2.1745571778237447 8.63264921385696 0.7754717548198287 32.88791736491355" Properties=species:S:1:pos:R:3 unique_starting_index=40 config_type=initial n_minim_iter=13 stress="-1.9248380046796472e-05 -2.555384621024304e-06 6.166091268164982e-06 -2.555384621024304e-06 -1.6854501444991597e-05 9.397876771463684e-05 6.166091268164982e-06 9.397876771463684e-05 2.4755153823949244e-05" pbc="T T T"
Si      12.83371424       4.41368288      32.93043634
Si       4.29379184       3.47346636      10.48930619
Si       8.24883498       1.23473472      17.67460074
Si       8.51502126       3.10754082      29.93019212
Si      10.52691264       3.91829522      31.66735732
Si       8.91470897       6.74659168      18.25830658
Si       4.65107990       2.38123066      10.07035176
Si       8.47271952       6.50616159      19.11998836
Si       3.73035073       2.60650128       1.12643873
Si      12.41160457       4.29893746      33.72966773
Si       8.74456180       1.84439332      24.74392802
Si       7.36655034       4.74518766      24.05655965
Si       1.49660973       2.88571256      -0.43629958
Si       5.54405624       0.80206879      17.12780802
Si      10.50235556       3.04263119      31.89948570
Si      11.12599613       6.93261344      19.76242012
Si       6.89770689       3.91284810      11.21903142
Si       8.70257598       7.69344634      18.44518437
Si       4.89116695       3.38148996       9.41220211
Si       7.93693162       0.61987213      18.37758409
Si      12.80515248       3.28159696      33.22409069
Si       6.98122120       2.83936714      11.29508803
22
Lattice="4.658945854008942 0.5415577362380983 2.5393612197418505 2.717865806680509 6.66543498732765 2.1743940719760113 8.632206580711276 0.7751566035650939 32.887346080136155" Properties=species:S:1:pos:R:3 unique_starting_index=40 config_type=initial n_minim_iter=14 stress="-4.361828510469094e-07 -5.461602983115886e-06 1.0171862346363454e-05 -5.461602983115886e-06 3.644694841796801e-05 -6.0699845444869884e-05 1.0171862346363454e-05 -6.0699845444869884e-05 3.2087922030008225e-07" pbc="T T T"
Si      12.83346471       4.41357808      32.92970597
Si       4.29396699       3.47304097      10.48917998
Si       8.24818132       1.23514076      17.67450122
Si       8.51469204       3.10759705      29.92966837
Si      10.52690587       3.91749277      31.66626223
Si       8.91426219       6.74680688      18.25787519
Si       4.65106695       2.38121611      10.07041335
Si       8.47240897       6.50640791      19.11948877
Si       3.73063105       2.60639056       1.12622977
Si      12.41129138       4.29849775      33.72901607
Si       8.74422354       1.84324477      24.74375227
Si       7.36644702       4.74522247      24.05593115
Si       1.49683256       2.88661536      -0.43646276
Si       5.54357607       0.80233434      17.12734278
Si      10.50175862       3.04227383      31.89945229
Si      11.12581480       6.93332799      19.76156267
Si       6.89752211       3.91264334      11.21922655
Si       8.70218336       7.69385148      18.44459146
Si       4.89149167       3.38136027       9.41171248
Si       7.93667389       0.61928933      18.37713295
Si      12.80476731       3.28152343      33.22337976
Si       6.98186637       2.83926787      11.29423433
22
Lattice="4.658973654980117 0.5417538949421182 2.539270358625063 2.7179288081898023 6.665609879009474 2.1747080163479247 8.631349166959412 0.77711407533062 32.88747815566574" Properties=species:S:1:pos:R:3 unique_starting_index=40 config_type=initial n_minim_iter=15 stress="1.7901702967148396e-05 -6.801670045403225e-05 -2.824870756201785e-05 -6.801670045403225e-05 2.3719900698279724e-06 8.785110043931439e-05 -2.824870756201785e-05 8.785110043931439e-05 3.3764096943089594e-05" pbc="T T T"
Si      12.83270480       4.41569681      32.92998702
Si       4.29398168       3.47339397      10.48933987
Si       8.24735702       1.23657198      17.67476788
Si       8.51401754       3.10949874      29.92989107
Si      10.52636671       3.91895482      31.66620746
Si       8.91369794       6.74810029      18.25820458
Si       4.65100419       2.38194269      10.07074184
Si       8.47192773       6.50777089      19.11980277
Si       3.73088765       2.60640647       1.12634652
Si      12.41064953       4.30042220      33.72926091
Si       8.74358471       1.84400407      24.74409275
Si       7.36601651       4.74673056      24.05612075
Si       1.49684230       2.88715651      -0.43656180
Si       5.54295679       0.80366580      17.12730918
Si      10.50075950       3.04403455      31.90007116
Si      11.12540486       6.93513607      19.76153863
Si       6.89724567       3.91313490      11.21977092
Si       8.70163261       7.69524946      18.44484491
Si       4.89151537       3.38181424       9.41177278
Si       7.93617909       0.62013122      18.37702625
Si      12.80420390       3.28367121      33.22342499
Si       6.98223321       2.83981450      11.29387251
22
Lattice="4.659025936211851 0.5422304812353872 2.539077625026341 2.7187049744350005 6.666095329927993 2.174322308006558 8.63066540702021 0.7768317418354991 32.88662104642945" Properties=species:S:1:pos:R:3 unique_starting_index=40 config_type=initial n_minim_iter=16 stress="-5.040440922576563e-06 2.9964520508958444e-05 -1.0181493339378817e-05 2.9964520508958444e-05 4.395440302465135e-05 -9.509594897825012e-05 -1.0181493339378817e-05 -9.509594897825012e-05 4.049683729513912e-05" pbc="T T T"
Si      12.83225667       4.41624570      32.92895378
Si       4.29454610       3.47322595      10.48873561
Si       8.24630338       1.23743820      17.67469026
Si       8.51375819       3.10954891      29.92882096
Si      10.52654117       3.91847851      31.66476049
Si       8.91374717       6.74900574      18.25740033
Si       4.65143150       2.38239519      10.07071197
Si       8.47203947       6.50861502      19.11902111
Si       3.73141623       2.60674672       1.12618201
Si      12.41045826       4.30053532      33.72806027
Si       8.74314292       1.84288288      24.74374932
Si       7.36624750       4.74682455      24.05510835
Si       1.49737962       2.88825933      -0.43692978
Si       5.54235785       0.80404640      17.12668224
Si      10.50023775       3.04374158      31.90001701
Si      11.12571928       6.93681489      19.76002689
Si       6.89734303       3.91323764      11.21997080
Si       8.70177928       7.69614884      18.44372810
Si       4.89189988       3.38188886       9.41134131
Si       7.93565855       0.61996628      18.37630894
Si      12.80408265       3.28411902      33.22218200
Si       6.98326888       2.83985568      11.29263676
22
Lattice="4.6590901324386005 0.5428379692561259 2.538832625228123 2.719217286808702 6.66665524939594 2.1747164061241007 8.629755815849423 0.7804897729949409 32.884738667623026" Properties=species:S:1:pos:R:3 unique_starting_index=40 config_type=initial n_minim_iter=17 stress="2.239833866822584e-05 -8.85717101056357e-06 -3.0434397318051293e-05 -8.85717101056357e-06 3.239071747625981e-05 5.736769463949201e-06 -3.0434397318051293e-05 5.736769463949201e-06 4.227940927693753e-05" pbc="T T T"
Si      12.83169055       4.42047892      32.92724471
Si       4.29490087       3.47439236      10.48818504
Si       8.24506822       1.24035591      17.67424495
Si       8.51326417       3.11316352      29.92716785
Si      10.52609872       3.92163294      31.66252912
Si       8.91343990       6.75187344      18.25679702
Si       4.65186097       2.38385048      10.07060109
Si       8.47172442       6.51160309      19.11839706
Si       3.73192293       2.60708051       1.12618429
Si      12.40984799       4.30445939      33.72641167
Si       8.74250440       1.84459212      24.74278551
Si       7.36615969       4.74961738      24.05387709
Si       1.49787960       2.88920895      -0.43681858
Si       5.54159699       0.80635892      17.12551486
Si      10.49938736       3.04715979      31.89912513
Si      11.12585973       6.94043409      19.75854242
Si       6.89727232       3.91441818      11.22033418
Si       8.70147429       7.69897608      18.44289957
Si       4.89204979       3.38292545       9.41110010
Si       7.93503358       0.62198481      18.37511369
Si      12.80376034       3.28834103      33.22040162
Si       6.98420402       2.84093834      11.29130538
22
Lattice="4.659136575281114 0.5433589402476825 2.5386340835863654 2.719702613106849 6.667289146132295 2.1749378061287397 8.629350702143954 0.7831264403673889 32.8826641251744" Properties=species:S:1:pos:R:3 unique_starting_index=40 config_type=initial n_minim_iter=18 stress="1.4871586076873836e-05 -1.5812809393261284e-05 -8.92134591526282e-06 -1.5812809393261284e-05 8.257511814149056e-05 1.0754350062029745e-05 -8.92134591526282e-06 1.0754350062029745e-05 2.3977868762480725e-05" pbc="T T T"
Si      12.83153131       4.42357893      32.92513258
Si       4.29526667       3.47560097      10.48761169
Si       8.24408328       1.24266810      17.67360362
Si       8.51304086       3.11590694      29.92537192
Si      10.52636283       3.92395681      31.66032726
Si       8.91343912       6.75423801      18.25595172
Si       4.65242268       2.38477114      10.07029469
Si       8.47174138       6.51406163      19.11758597
Si       3.73246466       2.60738885       1.12623334
Si      12.40969460       4.30751749      33.72461627
Si       8.74223270       1.84576411      24.74160458
Si       7.36637365       4.75165526      24.05241678
Si       1.49810700       2.89000609      -0.43683003
Si       5.54110817       0.80812097      17.12430432
Si      10.49909371       3.04990008      31.89778727
Si      11.12616540       6.94345006      19.75692738
Si       6.89729872       3.91532233      11.22051292
Si       8.70142736       7.70139813      18.44183489
Si       4.89227688       3.38379467       9.41076328
Si       7.93465133       0.62343171      18.37384401
Si      12.80375358       3.29152667      33.21842476
Si       6.98514793       2.84175826      11.29000783
22
Lattice="4.659248374106612 0.5441611931620085 2.538254670626543 2.720649305056143 6.667784314533405 2.1749960583533325 8.628008239478463 0.7860440435241816 32.880215256593566" Properties=species:S:1:pos:R:3 unique_starting_index=40 config_type=initial n_minim_iter=19 stress="2.587745852981975e-05 1.7632177198541105e-05 1.4018803654422737e-06 1.7632177198541105e-05 8.340726942188194e-05 -3.26989969094242e-05 1.4018803654422737e-06 -3.26989969094242e-05 2.7751777066583232e-05" pbc="T T T"
Si      12.83074875       4.42706905      32.92277903
Si       4.29567218       3.47724099      10.48697401
Si       8.24232778       1.24564717      17.67283972
Si       8.51225012       3.11879041      29.92329483
Si      10.52591842       3.92648030      31.65730993
Si       8.91324073       6.75693470      18.25461508
Si       4.65322837       2.38536224      10.06983381
Si       8.47163464       6.51680890      19.11641710
Si       3.73331470       2.60768500       1.12626363
Si      12.40898889       4.31108667      33.72207176
Si       8.74138563       1.84668806      24.74019973
Si       7.36633432       4.75349543      24.05047678
Si       1.49883616       2.89103498      -0.43681191
Si       5.53988815       0.81039930      17.12279758
Si      10.49806821       3.05289543      31.89614148
Si      11.12642682       6.94743602      19.75460145
Si       6.89720068       3.91606539      11.22086552
Si       8.70116837       7.70420212      18.44014455
Si       4.89265124       3.38468100       9.41023602
Si       7.93382451       0.62488146      18.37207274
Si      12.80317370       3.29517405      33.21574695
Si       6.98666139       2.84259236      11.28800590
22
Lattice="4.659329568463611 0.5446311233706186 2.538003683528649 2.72105440708154 6.667797695917977 2.175355771053968 8.626635429830978 0.7892287043660209 32.879222038455374" Properties=species:S:1:pos:R:3 unique_starting_index=40 config_type=initial n_minim_iter=20 stress="4.663141038786079e-05 -2.2814948269176723e-06 -1.108169942830084e-05 -2.2814948269176723e-06 2.6208588076795685e-05 3.280225303257347e-05 -1.108169942830084e-05 3.280225303257347e-05 5.647160177580091e-05" pbc="T T T"
Si      12.82959928       4.43041792      32.92195330
Si       4.29573690       3.47849376      10.48696990
Si       8.24094409       1.24828361      17.67260128
Si       8.51131321       3.12159564      29.92237327
Si      10.52503513       3.92937449      31.65627886
Si       8.91257970       6.75898645      18.25435641
Si       4.65351293       2.38587774      10.06978867
Si       8.47110841       6.51895520      19.11607973
Si       3.73385075       2.60789550       1.12627722
Si      12.40797954       4.31424632      33.72123582
Si       8.74048951       1.84811300      24.73971883
Si       7.36583330       4.75523439      24.04979892
Si       1.49925786       2.89143650      -0.43687746
Si       5.53890565       0.81263276      17.12206698
Si      10.49693237       3.05581865      31.89573165
Si      11.12611029       6.95034283      19.75358000
Si       6.89686160       3.91668501      11.22148680
Si       8.70053984       7.70628198      18.43976833
Si       4.89276969       3.38535236       9.41016160
Si       7.93302194       0.62630573      18.37124304
Si      12.80223060       3.29851455      33.21489901
Si       6.98755330       2.84333750      11.28690852
22
Lattice="4.659426591296504 0.5448587781024917 2.5377784793516645 2.7214934177679373 6.668002432224714 2.1750152891528063 8.626415640164852 0.7888974942996484 32.87717931770227" Properties=species:S:1:pos:R:3 unique_starting_index=40 config_type=initial n_minim_iter=21 stress="2.7223437008984508e-05 4.107556519267081e-05 2.191380065052053e-05 4.107556519267081e-05 4.697573465629335e-05 -3.455302679322722e-05 2.191380065052053e-05 -3.455302679322722e-05 1.6184248387706693e-05" pbc="T T T"
Si      12.82972037       4.43035764      32.91964256
Si       4.29622436       3.47851463      10.48634639
Si       8.24022235       1.24909969      17.67188016
Si       8.51125386       3.12137988      29.92051289
Si      10.52510040       3.92921882      31.65410171
Si       8.91247606       6.75949723      18.25297151
Si       4.65391774       2.38560602      10.06932638
Si       8.47111484       6.51947002      19.11453137
Si       3.73415992       2.60819323       1.12625813
Si      12.40806407       4.31409175      33.71915268
Si       8.74046526       1.84715484      24.73831887
Si       7.36612501       4.75450882      24.04792938
Si       1.49964928       2.89178125      -0.43702367
Si       5.53860321       0.81301818      17.12078253
Si      10.49693466       3.05556805      31.89396445
Si      11.12634723       6.95144647      19.75144321
Si       6.89688013       3.91654865      11.22151103
Si       8.70056520       7.70679636      18.43822849
Si       4.89322305       3.38516539       9.40954031
Si       7.93281558       0.62583542      18.36991588
Si      12.80254331       3.29853018      33.21260939
Si       6.98864383       2.84309995      11.28535344
