24
Lattice="10.492714335979938 7.540634783254063e-13 5.1643856380664964e-14 5.246357167989321 9.086957169612175 -8.275621463003711e-14 5.246357167989711 3.0289857232044115 8.520230547716839" Properties=species:S:1:pos:R:3 unique_starting_index=24 config_type=initial n_minim_iter=1 energy=-3937.2610899773263 free_energy=-3937.2610899773263 pbc="T T T"
Si      11.88322554       4.52698788       8.15328068
Si      11.12332835       8.02768126       8.15328068
Si       8.47158755       5.61924430       8.15328068
Si      11.56779851       4.11660223       6.26342677
Si      11.63644626       7.95970626       6.26342677
Si       8.27389666       6.09760495       6.26342677
Si      13.22626706       4.83277965       1.46147500
Si      10.18698415       9.03789345       1.46147500
Si       8.06489023       4.30324034       1.46147500
Si      11.49572083       7.80912395       2.42021598
Si       8.47466748       6.05102430       2.42021598
Si      11.50775312       4.31376518       2.42021598
Si      12.76249538       8.51095489       7.58846881
Si       7.23347680       6.79716777       7.58846881
Si      11.48216926       2.86579078       7.58846881
Si      14.15490654       3.28670653       6.83852547
Si      11.06160301      10.61515539       6.83852547
Si       6.26163189       4.27205152       6.83852547
Si      11.58314915      11.74690795       6.00918929
Si       5.02073235       4.15784744       6.00918929
Si      14.87425994       2.26915804       6.00918929
Si       5.12986280       1.86222142       0.92131617
Si       6.31505083       3.51148079       0.92131617
Si       4.29415631       3.71325406       0.92131617
24
Lattice="10.502021664741976 7.53689793378126e-13 5.165981754011433e-14 5.251010832370339 9.095017552761476 -8.302707242313115e-14 5.251010832370729 3.0316725175875114 8.517588445068693" Properties=species:S:1:pos:R:3 unique_starting_index=24 config_type=initial n_minim_iter=2 stress="-0.00011990733053686009 -5.106471467869463e-16 1.2080448602168474e-16 -5.106471467869463e-16 -0.00011990733053185132 -1.2014263710080908e-15 1.2080448602168474e-16 -1.2014263710080908e-15 0.003467674802963004" pbc="T T T"
Si      11.89373926       4.53101571       8.15072143
Si      11.13319794       8.03477249       8.15072143
Si       8.47912622       5.62424600       8.15072143
Si      11.57808660       4.12021931       6.26158784
Si      11.64678439       7.96680747       6.26158784
Si       8.28119243       6.10300742       6.26158784
Si      13.23788652       4.83715847       1.46111361
Si      10.19599691       9.04576678       1.46111361
Si       8.07218000       4.30710895       1.46111361
Si      11.50585916       7.81610409       2.41938334
Si       8.48216800       6.05631428       2.41938334
Si      11.51803626       4.31761583       2.41938334
Si      12.77379644       8.51848292       7.58610352
Si       7.23992145       6.80319076       7.58610352
Si      11.49234553       2.86836052       7.58610352
Si      14.16747711       3.28962604       6.83640076
Si      11.07140401      10.62458206       6.83640076
Si       6.26718231       4.27582609       6.83640076
Si      11.59366690      11.75715147       6.00728827
Si       5.02521699       4.16183433       6.00728827
Si      14.88717954       2.27104841       6.00728827
Si       5.13448865       1.86390153       0.92100222
Si       6.32059021       3.51464684       0.92100222
Si       4.29795206       3.71646827       0.92100222
24
Lattice="10.505473547297328 7.549410605964862e-13 5.172520919343905e-14 5.252736773648014 9.09800697074529 -8.318002211552773e-14 5.252736773648404 3.032668990248782 8.497508992249141" Properties=species:S:1:pos:R:3 unique_starting_index=24 config_type=initial n_minim_iter=3 stress="-0.00024041344072050464 -1.7333088390892466e-15 -1.5730324499857654e-16 -1.7333088390892466e-15 -0.00024041344071644094 -2.757710766544674e-15 -1.5730324499857654e-16 -2.757710766544674e-15 -0.001128911865040644" pbc="T T T"
Si      11.89748196       4.53257188       8.13141135
Si      11.13688267       8.03723568       8.13141135
Si       8.48205444       5.62620548       8.13141135
Si      11.58208062       4.12140392       6.24732428
Si      11.65066524       7.96967409       6.24732428
Si       8.28367321       6.10493503       6.24732428
Si      13.24168161       4.83916174       1.45809509
Si      10.19926825       9.04805179       1.45809509
Si       8.07546922       4.30879951       1.45809509
Si      11.50933011       7.81893999       2.41327599
Si       8.48488033       6.05790227       2.41327599
Si      11.52220863       4.31917078       2.41327599
Si      12.77785591       8.52125490       7.56814684
Si       7.24239488       6.80532037       7.56814684
Si      11.49616828       2.86943776       7.56814684
Si      14.17237092       3.29070008       6.82026189
Si      11.07493072      10.62828321       6.82026189
Si       6.26911743       4.27702975       6.82026189
Si      11.59848116      11.76022741       5.99298185
Si       5.02704978       4.16446563       5.99298185
Si      14.89088813       2.27132000       5.99298185
Si       5.13661135       1.86480676       0.91864744
Si       6.32219680       3.51603254       0.91864744
Si       4.29940060       3.71716677       0.91864744
24
Lattice="10.505328562392181 7.552370014254978e-13 5.175037046215525e-14 5.252664281195439 9.097881410134267 -8.308771373521658e-14 5.252664281195831 3.0326271367117745 8.50762329869541" Properties=species:S:1:pos:R:3 unique_starting_index=24 config_type=initial n_minim_iter=4 stress="0.008717551207981745 -5.384084722883083e-15 3.7738975411581265e-16 -5.384084722883083e-15 0.00871755120799085 -3.252324147264348e-15 3.7738975411581265e-16 -3.252324147264348e-15 0.0009722762664502152" pbc="T T T"
Si      11.89731978       4.53259196       8.14065548
Si      11.13665640       8.03708519       8.14065548
Si       8.48200793       5.62608477       8.14065548
Si      11.58245512       4.12086243       6.25599038
Si      11.65065697       7.97026916       6.25599038
Si       8.28287203       6.10463033       6.25599038
Si      13.24010803       4.84028495       1.46086063
Si      10.19879234       9.04612743       1.46086063
Si       8.07708375       4.30934954       1.46086063
Si      11.50838600       7.81934897       2.41513891
Si       8.48470823       6.05688014       2.41513891
Si      11.52288989       4.31953280       2.41513891
Si      12.77728354       8.52115764       7.57698162
Si       7.24247532       6.80487332       7.57698162
Si      11.49622525       2.86973096       7.57698162
Si      14.17314020       3.29060767       6.82824293
Si      11.07433614      10.62899563       6.82824293
Si       6.26850778       4.27615862       6.82824293
Si      11.60007606      11.75822320       5.99980786
Si       5.02769805       4.16684895       5.99980786
Si      14.88821000       2.27068976       5.99980786
Si       5.13737201       1.86552272       0.91954217
Si       6.32105144       3.51633331       0.91954217
Si       4.29956782       3.71602447       0.91954217
24
Lattice="10.50688738455992 7.59285514287059e-13 5.176042646212858e-14 5.253443692279305 9.099231389731514 -8.309301601821382e-14 5.253443692279698 3.033077129910858 8.513771354931597" Properties=species:S:1:pos:R:3 unique_starting_index=24 config_type=initial n_minim_iter=5 stress="0.003163634606770926 -5.520045596235836e-15 3.0416856139377107e-17 -5.520045596235836e-15 0.003163634606779603 -2.9344764259307582e-15 3.0416856139377107e-17 -2.9344764259307582e-15 0.0012341231841657078" pbc="T T T"
Si      11.89912716       4.53370232       8.14444197
Si      11.13790876       8.03809524       8.14444197
Si       8.48362466       5.62666431       8.14444197
Si      11.58598606       4.11957170       6.26565540
Si      11.65312695       7.97397241       6.26565540
Si       8.28154757       6.10491777       6.26565540
Si      13.23841438       4.84517687       1.46557152
Si      10.19852027       9.04221472       1.46557152
Si       8.08372593       4.31107028       1.46557152
Si      11.50738005       7.82246649       2.41298006
Si       8.48562900       6.05445021       2.41298006
Si      11.52765154       4.32154518       2.41298006
Si      12.77784104       8.52200854       7.58180507
Si       7.24457731       6.80493068       7.58180507
Si      11.49824223       2.87152266       7.58180507
Si      14.17714911       3.29128594       6.83277453
Si      11.07486193      10.63212831       6.83277453
Si       6.26864954       4.27504762       6.83277453
Si      11.59825986      11.75609439       6.00257910
Si       5.03356740       4.16634049       6.00257910
Si      14.88883332       2.27602700       6.00257910
Si       5.14106970       1.86556255       0.92002737
Si       6.32072693       3.51951569       0.92002737
Si       4.29853288       3.71415225       0.92002737
24
Lattice="10.496796186781244 7.561501452396183e-13 5.171938215849967e-14 5.248398093389969 9.090492156100566 -8.301881572634776e-14 5.248398093390362 3.0301640520338746 8.524185403691327" Properties=species:S:1:pos:R:3 unique_starting_index=24 config_type=initial n_minim_iter=6 stress="-0.0008388292882864864 -1.1037850650408336e-14 -3.2763649888055586e-16 -1.1037850650408336e-14 -0.0008388292882705591 -3.198870588039247e-15 -3.2763649888055586e-16 -3.198870588039247e-15 -7.741820386104437e-06" pbc="T T T"
Si      11.88929447       4.53051829       8.15059920
Si      11.12540016       8.03117190       8.15059920
Si       8.47569236       5.61929322       8.15059920
Si      11.57740274       4.11293665       6.28131088
Si      11.64298234       7.96985656       6.28131088
Si       8.27000192       6.09819020       6.28131088
Si      13.22887979       4.84489798       1.46981260
Si      10.18334671       9.03409698       1.46981260
Si       8.07816049       4.30198846       1.46981260
Si      11.49398497       7.81622598       2.41111750
Si       8.47754859       6.04596998       2.41111750
Si      11.51885344       4.31878745       2.41111750
Si      12.76336924       8.51364136       7.59010506
Si       7.23887701       6.79658132       7.59010506
Si      11.48814074       2.87076073       7.59010506
Si      14.16288217       3.28964357       6.84124620
Si      11.06323534      10.62059397       6.84124620
Si       6.26426948       4.27074587       6.84124620
Si      11.58612731      11.73709534       6.00675775
Si       5.03590494       4.16533291       6.00675775
Si      14.86835474       2.27855515       6.00675775
Si       5.13992249       1.85825107       0.92335617
Si       6.31754126       3.52217792       0.92335617
Si       4.28772895       3.71006227       0.92335617
24
Lattice="10.495396310078185 7.531182881041002e-13 5.172514117132215e-14 5.247698155038444 9.089279827313549 -8.299062060504519e-14 5.247698155038835 3.029759942438201 8.537506993875" Properties=species:S:1:pos:R:3 unique_starting_index=24 config_type=initial n_minim_iter=7 stress="-0.0054074725818712525 -1.2398224989027436e-14 -7.235038455135374e-17 -1.2398224989027436e-14 -0.005407472581848572 -2.985075310231831e-15 -7.235038455135374e-17 -2.985075310231831e-15 -0.0015034257517471824" pbc="T T T"
Si      11.88917671       4.53521902       8.16117655
Si      11.11858834       8.02871955       8.16117655
Si       8.47842232       5.61462018       8.16117655
Si      11.57643025       4.11036704       6.30107548
Si      11.64289418       7.97029917       6.30107548
Si       8.26686293       6.09789255       6.30107548
Si      13.23866209       4.85416223       1.47464052
Si      10.16763272       9.03793657       1.47464052
Si       8.07989255       4.28645995       1.47464052
Si      11.49144934       7.81442326       2.40944567
Si       8.47757785       6.04467543       2.40944567
Si      11.51716017       4.31946007       2.40944567
Si      12.75913121       8.51182488       7.60162315
Si       7.23976939       6.79381932       7.60162315
Si      11.48728676       2.87291455       7.60162315
Si      14.15998973       3.29262215       6.85275710
Si      11.05930228      10.61659975       6.85275710
Si       6.26689535       4.26933685       6.85275710
Si      11.58024444      11.72480763       6.01006575
Si       5.04668810       4.16638205       6.01006575
Si      14.85925483       2.28736907       6.01006575
Si       5.14987958       1.86130767       0.92552412
Si       6.30851575       3.52927271       0.92552412
Si       4.28469756       3.69869854       0.92552412
24
Lattice="10.50191401184571 7.540980949389424e-13 5.177103133443542e-14 5.250957005922206 9.094924322618516 -8.303869871306132e-14 5.250957005922595 3.031641440873191 8.525230070399932" Properties=species:S:1:pos:R:3 unique_starting_index=24 config_type=initial n_minim_iter=8 stress="-0.0021818728101923386 -8.90777368829394e-15 9.656575872429222e-17 -8.90777368829394e-15 -0.002181872810175807 -2.8869514652003717e-15 9.656575872429222e-17 -2.8869514652003717e-15 -0.0014499348146057695" pbc="T T T"
Si      11.90382105       4.54382018       8.14597971
Si      11.11685275       8.03710134       8.14597971
Si       8.48506667       5.60892622       8.14597971
Si      11.58024160       4.11454653       6.29455006
Si      11.65040436       7.97151015       6.29455006
Si       8.27509450       6.10379107       6.29455006
Si      13.25439240       4.86307695       1.47699762
Si      10.16508259       9.04710206       1.47699762
Si       8.08626547       4.27966873       1.47699762
Si      11.49506089       7.82117382       2.40113485
Si       8.48296132       6.04442784       2.40113485
Si      11.52771826       4.32424608       2.40113485
Si      12.76661979       8.51588527       7.59205649
Si       7.24554410       6.79827443       7.59205649
Si      11.49357657       2.87568804       7.59205649
Si      14.17362379       3.29598400       6.84336708
Si      11.06260920      10.62672627       6.84336708
Si       6.26950747       4.26713747       6.84336708
Si      11.58469719      11.72630133       5.99660424
Si       5.05620354       4.16949140       5.99660424
Si      14.86483974       2.29405501       5.99660424
Si       5.15589308       1.86273434       0.92847752
Si       6.31079117       3.53376722       0.92847752
Si       4.28618520       3.69842186       0.92847752
24
Lattice="10.50212131507966 7.536071496170734e-13 5.177993004427535e-14 5.25106065753918 9.0951038524854 -8.303330639378456e-14 5.251060657539568 3.0317012841621525 8.541793596817167" Properties=species:S:1:pos:R:3 unique_starting_index=24 config_type=initial n_minim_iter=9 stress="0.0037648133409259365 -1.178975913296978e-14 1.779343019118858e-16 -1.178975913296978e-14 0.003764813340946306 -3.334367371416767e-15 1.779343019118858e-16 -3.334367371416767e-15 0.0010481190614579864" pbc="T T T"
Si      11.91210707       4.55661325       8.16220243
Si      11.10204522       8.03788071       8.16220243
Si       8.49221009       5.59571284       8.16220243
Si      11.57564464       4.11883777       6.30542848
Si      11.64940112       7.96538344       6.30542848
Si       8.28131661       6.10598559       6.30542848
Si      13.26156084       4.87046508       1.49032787
Si      10.15551467       9.04961604       1.49032787
Si       8.08928686       4.27012568       1.49032787
Si      11.48629545       7.82725856       2.39788409
Si       8.48248910       6.03379438       2.39788409
Si      11.53757782       4.32915387       2.39788409
Si      12.76650857       8.51495164       7.60978774
Si       7.24682287       6.79864492       7.60978774
Si      11.49303094       2.87661024       7.60978774
Si      14.17069796       3.29922135       6.85652274
Si      11.06168310      10.62257375       6.85652274
Si       6.27398131       4.26841170       6.85652274
Si      11.58300589      11.72071430       6.00090575
Si       5.06230230       4.17082020       6.00090575
Si      14.86105418       2.29867229       6.00090575
Si       5.16289843       1.85971089       0.93320046
Si       6.31011418       3.54134575       0.93320046
Si       4.28016779       3.69404631       0.93320046
24
Lattice="10.493238496990669 7.529911820598719e-13 5.1790680385786755e-14 5.246619248494684 9.087411106363136 -8.290637077668012e-14 5.246619248495072 3.0291370354547325 8.578795246951818" Properties=species:S:1:pos:R:3 unique_starting_index=24 config_type=initial n_minim_iter=10 stress="0.0064988394362723075 -1.1243219275947184e-14 -2.553175808237031e-17 -1.1243219275947184e-14 0.006498839436296635 -2.855756829603913e-15 -2.553175808237031e-17 -2.855756829603913e-15 0.0024930644256983877" pbc="T T T"
Si      11.92118295       4.59421093       8.19548616
Si      11.04718110       8.02694181       8.19548616
Si       8.51134988       5.55366857       8.19548616
Si      11.56134132       4.12848100       6.33115032
Si      11.63043586       7.94817479       6.33115032
Si       8.28793673       6.09816552       6.33115032
Si      13.28084087       4.89560122       1.52993738
Si      10.10634049       9.05374497       1.52993738
Si       8.09253256       4.22547512       1.52993738
Si      11.45648533       7.83407175       2.39070153
Si       8.47372813       6.00457146       2.39070153
Si      11.54950046       4.33617810       2.39070153
Si      12.75029466       8.50098658       7.65350995
Si       7.24925829       6.79158579       7.65350995
Si      11.48016098       2.88224894       7.65350995
Si      14.15910527       3.30174948       6.87767351
Si      11.04752439      10.61127013       6.87767351
Si       6.27308426       4.26180171       6.87767351
Si      11.56876285      11.69606372       6.00667583
Si       5.07300622       4.17081066       6.00667583
Si      14.83794485       2.30794693       6.00667583
Si       5.18250359       1.85564333       0.94334247
Si       6.29495140       3.56035810       0.94334247
Si       4.26240119       3.67140877       0.94334247
24
Lattice="10.479611737320418 7.525674559740114e-13 5.175336898384909e-14 5.239805868659559 9.075609986317433 -8.277273846438186e-14 5.239805868659946 3.0252033287728315 8.592972360567739" Properties=species:S:1:pos:R:3 unique_starting_index=24 config_type=initial n_minim_iter=11 stress="0.0016499857907229724 -1.5342002358331925e-14 5.941125445072675e-17 -1.5342002358331925e-14 0.0016499857907443319 -2.045292397593751e-15 5.941125445072675e-17 -2.045292397593751e-15 9.326885355106292e-05" pbc="T T T"
Si      11.92173752       4.61488571       8.19903134
Si      11.00174541       8.01708470       8.19903134
Si       8.51535071       5.51924867       8.19903134
Si      11.54833800       4.13309098       6.34037917
Si      11.60569164       7.93460859       6.34037917
Si       8.28480400       6.08351950       6.34037917
Si      13.28491166       4.91106466       1.55851406
Si      10.06365985       9.04953866       1.55851406
Si       8.09026214       4.19061576       1.55851406
Si      11.42944394       7.83377799       2.38465968
Si       8.46024971       5.98129981       2.38465968
Si      11.54913999       4.33614127       2.38465968
Si      12.72477626       8.48447291       7.67408990
Si       7.24906523       6.77774304       7.67408990
Si      11.46499216       2.88900312       7.67408990
Si      14.13371113       3.30263632       6.88281579
Si      11.03219991      10.58883473       6.88281579
Si       6.27292260       4.25974802       6.88281579
Si      11.55218168      11.67488069       6.00378401
Si       5.07238833       4.16704246       6.00378401
Si      14.81426363       2.30929592       6.00378401
Si       5.18773881       1.85743099       0.95118808
Si       6.27715887       3.56399810       0.95118808
Si       4.25451836       3.65418000       0.95118808
24
Lattice="10.463923897807595 7.571678520309537e-13 5.170241998549932e-14 5.231961948903144 9.06202391876884 -8.250605297207457e-14 5.231961948903534 3.020674639589969 8.616096334041039" Properties=species:S:1:pos:R:3 unique_starting_index=24 config_type=initial n_minim_iter=12 stress="-0.009315691665924171 -1.0748711111080088e-15 -1.3155620662976498e-15 -1.0748711111080088e-15 -0.009315691665921765 -2.0668507711697615e-15 -1.3155620662976498e-15 -2.0668507711697615e-15 -0.002163034487787207" pbc="T T T"
Si      11.89774474       4.62380389       8.20102669
Si      10.97464275       7.99184725       8.20102669
Si       8.51938264       5.50839580       8.20102669
Si      11.54812209       4.13923702       6.34678236
Si      11.56910130       7.93134859       6.34678236
Si       8.27454674       6.05346133       6.34678236
Si      13.28451842       4.91616868       1.59164494
Si      10.02806058       9.04664609       1.59164494
Si       8.07919114       4.16123217       1.59164494
Si      11.41222300       7.83123611       2.39633369
Si       8.43968584       5.96765698       2.39633369
Si      11.53986128       4.32515385       2.39633369
Si      12.68246328       8.46458756       7.70001195
Si       7.25606725       6.75104161       7.70001195
Si      11.45323959       2.90841777       7.70001195
Si      14.11969216       3.29826583       6.89272671
Si      11.01161868      10.57887919       6.89272671
Si       6.26045929       4.24690192       6.89272671
Si      11.54204474      11.67196342       6.02408847
Si       5.04860755       4.15972225       6.02408847
Si      14.80111784       2.29236127       6.02408847
Si       5.18700257       1.85217663       0.94947363
Si       6.26638955       3.56598768       0.94947363
Si       4.24249216       3.64385870       0.94947363
24
Lattice="10.46165693564157 7.554192627859202e-13 5.1745359611794565e-14 5.230828467820129 9.060060671943642 -8.239683234721099e-14 5.230828467820521 3.02002022398157 8.662025073376347" Properties=species:S:1:pos:R:3 unique_starting_index=24 config_type=initial n_minim_iter=13 stress="0.004528946431721381 -2.1154977728425893e-14 -6.007063308708654e-16 -2.1154977728425893e-14 0.004528946431730807 -1.614865215433592e-15 -6.007063308708654e-16 -1.614865215433592e-15 -0.0002640750644892041" pbc="T T T"
Si      11.90765384       4.67016425       8.21478264
Si      10.92500503       7.97724861       8.21478264
Si       8.55231037       5.47270759       8.21478264
Si      11.55350897       4.16022012       6.36628777
Si      11.54370204       7.92552221       6.36628777
Si       8.28775824       6.03437812       6.36628777
Si      13.32668166       4.94651018       1.65676891
Si       9.97616852       9.06798978       1.65676891
Si       8.08211906       4.10562048       1.65676891
Si      11.39565905       7.85193584       2.39683860
Si       8.42550739       5.94296231       2.39683860
Si      11.56380280       4.32522229       2.39683860
Si      12.65464758       8.45411090       7.74736857
Si       7.27451423       6.73219083       7.74736857
Si      11.45580743       2.93381871       7.74736857
Si      14.11577709       3.30734595       6.92883142
Si      11.00117867      10.57094858       6.92883142
Si       6.26801348       4.24182591       6.92883142
Si      11.53884379      11.66408949       6.05072023
Si       5.05249313       4.16088712       6.05072023
Si      14.79363232       2.29514384       6.05072023
Si       5.21069346       1.84915266       0.95425745
Si       6.25489599       3.58801658       0.95425745
Si       4.22689439       3.62289054       0.95425745
24
Lattice="10.466592532371928 7.552045960704608e-13 5.192695283760308e-14 5.233296266185309 9.064335024094971 -8.238589491810887e-14 5.2332962661857 3.0214450080320123 8.67490122049399" Properties=species:S:1:pos:R:3 unique_starting_index=24 config_type=initial n_minim_iter=14 stress="0.007111712355902539 -1.747545262599085e-14 -6.326700385646573e-17 -1.747545262599085e-14 0.007111712355917768 -1.6786665159698496e-15 -6.326700385646573e-17 -1.6786665159698496e-15 0.0015939507251222914" pbc="T T T"
Si      11.90291091       4.66795291       8.21587278
Si      10.93916276       7.97424678       8.21587278
Si       8.55770236       5.48646946       8.21587278
Si      11.56389637       4.16584813       6.36046863
Si      11.54350553       7.93170395       6.36046863
Si       8.29237414       6.03111706       6.36046863
Si      13.33668117       4.93518510       1.66769967
Si       9.99084777       9.08231215       1.66769967
Si       8.07224709       4.11117190       1.66769967
Si      11.40682256       7.86066862       2.40663347
Si       8.42223403       5.94826380       2.40663347
Si      11.57071945       4.31973673       2.40663347
Si      12.65661053       8.45886547       7.74947646
Si       7.27928637       6.73151351       7.74947646
Si      11.46387913       2.93829017       7.74947646
Si      14.12090420       3.31145381       6.94920796
Si      11.00492880      10.57333486       6.94920796
Si       6.27394303       4.24388048       6.94920796
Si      11.54703438      11.67679838       6.07899353
Si       5.04726280       4.16162593       6.07899353
Si      14.80547885       2.29024485       6.07899353
Si       5.20776664       1.85367193       0.94743283
Si       6.25738119       3.58322225       0.94743283
Si       4.23473940       3.62743995       0.94743283
24
Lattice="10.458526231109177 7.554320263646187e-13 5.221165205642005e-14 5.229263115553934 9.057349402286857 -8.209685059230144e-14 5.229263115554324 3.019116467429306 8.735971402076334" Properties=species:S:1:pos:R:3 unique_starting_index=24 config_type=initial n_minim_iter=15 stress="0.0016849576589906764 -1.720055815227927e-14 -4.933783586438211e-16 -1.720055815227927e-14 0.001684957659000189 -1.4172804842184435e-15 -4.933783586438211e-16 -1.4172804842184435e-15 0.0022502316917723886" pbc="T T T"
Si      11.88606777       4.69076380       8.22954747
Si      10.91169692       7.94825475       8.22954747
Si       8.57781243       5.47567936       8.22954747
Si      11.57464073       4.17880437       6.36977533
Si      11.51078031       7.93453073       6.36977533
Si       8.29015608       6.00136280       6.36977533
Si      13.36906128       4.93113878       1.74814808
Si       9.96202933       9.11237730       1.74814808
Si       8.04448652       4.07118182       1.74814808
Si      11.39424851       7.88309377       2.41785777
Si       8.39296770       5.92616178       2.41785777
Si      11.58836092       4.30544236       2.41785777
Si      12.63343650       8.44419286       7.77495896
Si       7.28744763       6.71878052       7.77495896
Si      11.45469299       2.95172452       7.77495896
Si      14.11113125       3.32441296       7.01896852
Si      10.98245972      10.55839167       7.01896852
Si       6.28198616       4.23189328       7.01896852
Si      11.53676868      11.66211776       6.16707666
Si       5.04897684       4.16007587       6.16707666
Si      14.78983161       2.29250427       6.16707666
Si       5.21512071       1.85633471       0.93369284
Si       6.24333182       3.58825966       0.93369284
Si       4.22933526       3.61275413       0.93369284
24
Lattice="10.46255469876116 7.542791393646712e-13 5.233254919023939e-14 5.231277349379926 9.060838157611796 -8.205737300947179e-14 5.231277349380315 3.0202793858709507 8.723220053878402" Properties=species:S:1:pos:R:3 unique_starting_index=24 config_type=initial n_minim_iter=16 stress="5.0272967591178075e-05 -1.931727339242007e-14 -4.975453844870854e-16 -1.931727339242007e-14 5.027296760353374e-05 -1.7869209572377516e-15 -4.975453844870854e-16 -1.7869209572377516e-15 -0.0006434830116528338" pbc="T T T"
Si      11.88954223       4.68719544       8.21657096
Si      10.92110692       7.95304789       8.21657096
Si       8.57701338       5.48143208       8.21657096
Si      11.58407883       4.17849439       6.35735611
Si      11.51438665       7.94285936       6.35735611
Si       8.28919705       6.00032168       6.35735611
Si      13.37942483       4.93439789       1.75451095
Si       9.96208202       9.11972285       1.75451095
Si       8.04615568       4.06755468       1.75451095
Si      11.40048892       7.88453691       2.41352216
Si       8.39665463       5.93084457       2.41352216
Si      11.59051898       4.30629393       2.41352216
Si      12.64537372       8.44623216       7.74690040
Si       7.28776988       6.72809880       7.74690040
Si      11.45451894       2.94734445       7.74690040
Si      14.11828361       3.32719917       7.01179361
Si      10.98452754      10.56319268       7.01179361
Si       6.28485138       4.23128356       7.01179361
Si      11.53861398      11.66207240       6.17373991
Si       5.05615040       4.16169663       6.17373991
Si      14.79289815       2.29790638       6.17373991
Si       5.21601825       1.85753104       0.92628265
Si       6.24587546       3.58843880       0.92628265
Si       4.23193677       3.61486742       0.92628265
24
Lattice="10.450807897857025 7.550146645799269e-13 5.231720707887994e-14 5.225403948927859 9.05066512961562 -8.179104441543826e-14 5.225403948928247 3.016888376538892 8.746338704675573" Properties=species:S:1:pos:R:3 unique_starting_index=24 config_type=initial n_minim_iter=17 stress="-0.013134398764735492 -1.1299667609477114e-15 8.949484367066568e-17 -1.1299667609477114e-15 -0.013134398764739333 -1.0879620583139069e-15 8.949484367066568e-17 -1.0879620583139069e-15 -0.0026365691252750664" pbc="T T T"
Si      11.88794781       4.69620602       8.22742065
Si      10.89060714       7.94716180       8.22742065
Si       8.57386718       5.45796155       8.22742065
Si      11.58364690       4.18825308       6.35820110
Si      11.48265774       7.93760595       6.35820110
Si       8.28611749       5.97547033       6.35820110
Si      13.40585335       4.95813307       1.82218789
Si       9.90481889       9.13074303       1.82218789
Si       8.04174989       4.01245326       1.82218789
Si      11.37094018       7.88619276       2.40511509
Si       8.38650139       5.90442668       2.40511509
Si      11.59498056       4.31070991       2.40511509
Si      12.64083838       8.42270421       7.72672695
Si       7.28691975       6.73593506       7.72672695
Si      11.42466399       2.94269009       7.72672695
Si      14.10400321       3.33106133       7.02823801
Si      10.96482942      10.54889441       7.02823801
Si       6.28358950       4.22137362       7.02823801
Si      11.52209228      11.63911660       6.21816852
Si       5.06079796       4.15886632       6.21816852
Si      14.76953189       2.30334644       6.21816852
Si       5.22202387       1.86021393       0.92222018
Si       6.22880240       3.59229837       0.92222018
Si       4.22538401       3.59815193       0.92222018
24
Lattice="10.456364769821722 7.577088220558482e-13 5.261092766844131e-14 5.228182384910208 9.055477521902624 -8.174209650822356e-14 5.228182384910596 3.0184925073012274 8.730678089894825" Properties=species:S:1:pos:R:3 unique_starting_index=24 config_type=initial n_minim_iter=18 stress="-0.006780063124318814 -3.781837140603696e-16 8.648467942543555e-16 -3.781837140603696e-16 -0.006780063124321457 -7.970597808765247e-16 8.648467942543555e-16 -7.970597808765247e-16 -0.0038348219652460896" pbc="T T T"
Si      11.89796287       4.68341373       8.22576145
Si      10.90779179       7.96223124       8.22576145
Si       8.56333808       5.46530917       8.22576145
Si      11.58962378       4.19558518       6.35003084
Si      11.48443326       7.93911602       6.35003084
Si       8.29503571       5.97625294       6.35003084
Si      13.41552354       4.97767993       1.82924303
Si       9.89416946       9.12934423       1.82924303
Si       8.05939975       4.00392999       1.82924303
Si      11.36639048       7.88485030       2.39558466
Si       8.40105259       5.90115775       2.39558466
Si      11.60164967       4.32494609       2.39558466
Si      12.65721057       8.42361833       7.69298056
Si       7.28905575       6.74965673       7.69298056
Si      11.42282642       2.93767908       7.69298056
Si      14.11246942       3.33146312       7.00798397
Si      10.97136210      10.55602547       7.00798397
Si       6.28526123       4.22346556       7.00798397
Si      11.52875430      11.64870588       6.20851296
Si       5.06027613       4.15984116       6.20851296
Si      14.78006231       2.30240710       6.20851296
Si       5.22397868       1.85732163       0.92529137
Si       6.23588668       3.59543743       0.92529137
Si       4.22468024       3.60271756       0.92529137
24
Lattice="10.469743250528957 7.676231012445981e-13 5.287609930869044e-14 5.234871625263816 9.067063626059133 -8.16719981606267e-14 5.234871625264211 3.022354542020067 8.73325416089832" Properties=species:S:1:pos:R:3 unique_starting_index=24 config_type=initial n_minim_iter=19 stress="-0.0033549113776661387 -3.10143361472439e-14 1.4008919430228434e-15 -3.10143361472439e-14 -0.0033549113776655884 -3.60233182939628e-16 1.4008919430228434e-15 -3.60233182939628e-16 0.00031192922610651726" pbc="T T T"
Si      11.91666287       4.64823225       8.24767512
Si      10.95566681       7.99601665       8.24767512
Si       8.53689850       5.48987745       8.24767512
Si      11.61572905       4.24211597       6.34472869
Si      11.45784074       7.93845846       6.34472869
Si       8.33565840       5.95355192       6.34472869
Si      13.47926625       5.05868651       1.91321610
Si       9.81890130       9.14404374       1.91321610
Si       8.11106063       3.93139610       1.91321610
Si      11.33416500       7.89547687       2.37173454
Si       8.43471941       5.86793638       2.37173454
Si      11.64034378       4.37071309       2.37173454
Si      12.68299297       8.41774518       7.61446694
Si       7.30800780       6.77492152       7.61446694
Si      11.41822741       2.94145965       7.61446694
Si      14.13101800       3.33693175       6.98899418
Si      10.98410879      10.56935469       6.98899418
Si       6.29410140       4.22783990       6.98899418
Si      11.55072028      11.68489892       6.22137636
Si       5.04470601       4.16076774       6.22137636
Si      14.81380189       2.28845970       6.22137636
Si       5.23221298       1.86388295       0.94518678
Si       6.23946573       3.59928788       0.94518678
Si       4.23293460       3.60389189       0.94518678
24
Lattice="10.489796864718224 7.837619320875569e-13 5.309677037091897e-14 5.244898432358436 9.084430565384737 -8.176447227667007e-14 5.24489843235884 3.028143521795273 8.702776289212562" Properties=species:S:1:pos:R:3 unique_starting_index=24 config_type=initial n_minim_iter=20 stress="-0.0017636197952606214 -2.155208146661782e-14 1.3788748383832858e-15 -2.155208146661782e-14 -0.001763619795267949 -3.8186800742605074e-16 1.3788748383832858e-15 -3.8186800742605074e-16 0.0001442024528879979" pbc="T T T"
Si      11.93440030       4.59874684       8.25286505
Si      11.02976095       8.03612042       8.25286505
Si       8.50522778       5.53399297       8.25286505
Si      11.64243189       4.28522197       6.33039940
Si      11.44726565       7.94003079       6.33039940
Si       8.37969148       5.94360746       6.33039940
Si      13.51457836       5.13801690       1.94553091
Si       9.77265034       9.13495973       1.94553091
Si       8.18216032       3.89588360       1.94553091
Si      11.31289629       7.90524506       2.34360210
Si       8.47700149       5.84463305       2.34360210
Si      11.67949124       4.41898212       2.34360210
Si      12.71734434       8.42840647       7.53097745
Si       7.32170640       6.79934004       7.53097745
Si      11.43033828       2.94111372       7.53097745
Si      14.15609088       3.33465458       6.94704018
Si      11.01365166      10.59220703       6.94704018
Si       6.29964648       4.24199862       6.94704018
Si      11.58197170      11.73441997       6.18645474
Si       5.02630105       4.16307173       6.18645474
Si      14.86111628       2.27136853       6.18645474
Si       5.23019351       1.87429609       0.96865505
Si       6.25151104       3.59233241       0.96865505
Si       4.25298918       3.61780117       0.96865505
24
Lattice="10.49797198768889 7.925030514117307e-13 5.325234936031522e-14 5.248985993843759 9.091510429556394 -8.162075370474759e-14 5.24898599384417 3.030503476519163 8.716879317347717" Properties=species:S:1:pos:R:3 unique_starting_index=24 config_type=initial n_minim_iter=21 stress="0.01000360612246165 -1.8731909267870146e-14 9.453362203718181e-16 -1.8731909267870146e-14 0.010003606122449065 -7.349241812030908e-16 9.453362203718181e-16 -7.349241812030908e-16 0.007515697235240029" pbc="T T T"
Si      11.93683289       4.58836274       8.26605802
Si      11.05388779       8.04341915       8.26605802
Si       8.50319372       5.55123806       8.26605802
Si      11.66459395       4.31973464       6.33467886
Si      11.42264602       7.94196737       6.33467886
Si       8.40667442       5.92131795       6.33467886
Si      13.54837718       5.19878410       2.00125463
Si       9.71947524       9.13384677       2.00125463
Si       8.22606197       3.85038909       2.00125463
Si      11.29397593       7.92276592       2.33078796
Si       8.48763841       5.81948711       2.33078796
Si      11.71230005       4.44076693       2.33078796
Si      12.72095071       8.43070832       7.50818128
Si       7.33426000       6.80131232       7.50818128
Si      11.43870368       2.95099932       7.50818128
Si      14.16653017       3.33747016       6.95675970
Si      11.02234390      10.59983993       6.95675970
Si       6.30504032       4.24570986       6.95675970
Si      11.59505173      11.75573089       6.19485732
Si       5.01765548       4.16374391       6.19485732
Si      14.88120719       2.26354515       6.19485732
Si       5.23546217       1.87502316       0.97858714
Si       6.25642217       3.59653166       0.97858714
Si       4.25507207       3.61995470       0.97858714
