18
Lattice="4.3212761312973935 0.0 0.0 0.0 11.455433252953043 -1.0753902677777988e-15 0.0 1.2688137936021411e-15 13.515848300422508" Properties=species:S:1:pos:R:3 unique_starting_index=55 config_type=initial n_minim_iter=1 energy=-2932.2950130256377 free_energy=-2932.2950130256377 pbc="T T T"
Si       1.16176133       8.94191245      10.01041837
Si       3.15951481       8.94191245       3.50542993
Si       3.15951481       8.94191245      10.01041837
Si       1.16176133       8.94191245       3.50542993
Si       3.16031578       9.23856102      12.51602147
Si       1.16096035       9.23856102       0.99982683
Si       1.16096035       9.23856102      12.51602147
Si       3.16031578       9.23856102       0.99982683
Si       3.33094610       8.81564867       5.49280245
Si       0.99033003       8.81564867       8.02304585
Si       0.99033003       8.81564867       5.49280245
Si       3.33094610       8.81564867       8.02304585
Si       1.16100330       4.41103815      12.51540007
Si       3.16027283       4.41103815       1.00044823
Si       3.16027283       4.41103815      12.51540007
Si       1.16100330       4.41103815       1.00044823
Si       2.16063807       2.78620769      11.90414216
Si       2.16063807       2.78620769       1.61170614
