10
Lattice="6.975131231413056 1.5219898372246377 1.3172917728277972e-12 -1.1572030312253871 7.044841368304303 1.3242421538341823e-12 -2.908964100094498 -4.283415602765454 4.686821254636707" Properties=species:S:1:pos:R:3 unique_starting_index=26 config_type=initial n_minim_iter=9 energy=-1643.1708835413656 free_energy=-1643.1708835413656 pbc="T T T"
Si       3.37324631       7.09569261       0.96821102
Si       2.44468132       1.47113774       0.96821102
Si       2.44291779       1.46854097       3.71861024
Si      -2.44291837      -1.46854183       3.71861024
Si       5.59408654       5.59285373       0.94601082
Si       0.22384108       2.97397662       0.94601082
Si       0.22708199       2.97874882       3.74081044
Si      -0.22708257      -2.97874967       3.74081044
Si       5.62996944      -0.69396044       2.34341063
Si       1.34516121       2.21594942       2.34341063
