22
Lattice="8.99946820928462 0.40380551985266927 -0.03168929891451833 -3.4226530580315755 8.333002639633275 0.03168929891452543 -2.8151183624933083 -4.351354246648168 7.368535538679555" Properties=species:S:1:pos:R:3 unique_starting_index=6 config_type=initial n_minim_iter=1 energy=-3592.2180934524495 free_energy=-3592.2180934524495 pbc="T T T"
Si      -2.76723007       4.94695801       6.17546910
Si       2.35157721       1.46663838       4.96253796
Si       6.31025862       3.08694762      -0.10397496
Si      -0.37744103      -0.72566021       3.71042861
Si       6.52461527      -1.19706459       2.37430827
Si      -0.58556884       3.55437605       1.22475574
Si       2.26239355       3.73757989       3.65810693
Si      -2.67181755       2.67204054       7.47251049
Si      -0.26924861       5.48518515       1.86978473
Si       1.59101158       5.96767664       3.17822691
Si       1.72404699       3.95649409       1.67729113
Si       1.86952676       6.04624215       0.67554151
Si       1.92803770      -0.39573129       4.19030862
Si       2.27359291      -2.28622266       5.49875080
Si       1.88204123      -0.11002590       6.69299403
Si       0.04777859      -1.12180249       5.69124440
Si      -1.43418923       1.74073396       1.17143590
Si       3.37483627       3.16880641       5.22304157
Si      -1.36170559       0.04392108       2.14549396
Si      -4.05501608       3.41364088       6.22878893
Si       2.78840758       4.36840408      -0.00000000
Si       3.09217492      -1.97377436       3.66842312
22
Lattice="8.82406752671142 0.4511250885211995 -0.024538853951450907 -3.3058850966063345 8.193827267491818 0.024538853951457797 -2.779774788681795 -4.309273591353349 7.195227373466612" Properties=species:S:1:pos:R:3 unique_starting_index=6 config_type=initial n_minim_iter=2 stress="-0.08281303347690756 0.011008940050278047 -0.03069148306628885 0.011008940050278047 -0.07259323898091864 0.01959076182675249 -0.03069148306628885 0.01959076182675249 -0.08984017155445176" pbc="T T T"
Si      -2.69647136       4.85884235       6.02022705
Si       2.32651134       1.46094682       4.86263457
Si       6.20072238       3.06671892      -0.10076109
Si      -0.36255512      -0.70965592       3.61856642
Si       6.38994877      -1.13279668       2.30805394
Si      -0.54317346       3.48436506       1.19953917
Si       2.24735392       3.70804513       3.57666095
Si      -2.60870589       2.60624941       7.29598845
Si      -0.12991883       5.36915083       1.77968935
Si       1.62061156       5.84659916       2.99835192
Si       1.65867519       3.99275443       1.69792595
Si       1.79598019       5.96937335       0.75015415
Si       1.84109550      -0.37777753       4.19687544
Si       2.14502706      -2.16661491       5.41553802
Si       1.87862507      -0.16701892       6.44507321
Si       0.14353483      -1.12375131       5.49730142
Si      -1.41339531       1.72329829       1.16355108
Si       3.34678874       3.12623124       5.07664211
Si      -1.35317147       0.04263629       2.11858526
Si      -3.92747420       3.32806664       6.05621515
Si       2.75909121       4.32247618      -0.00000000
Si       3.02214637      -1.92907425       3.58534426
22
Lattice="8.835687103485666 0.4704289120342171 0.024755402170611947 -3.2932675427766678 8.212494069627958 -0.02475540217060506 -2.7503424091845017 -4.354781397779176 7.194635389768882" Properties=species:S:1:pos:R:3 unique_starting_index=6 config_type=initial n_minim_iter=3 stress="-0.018326707958333684 0.0025774819622504676 -0.05265531421501158 0.0025774819622504676 -0.01593398569342573 0.0336105530472769 -0.05265531421501158 0.0336105530472769 -0.019971934260282653" pbc="T T T"
Si      -2.66618936       4.84784763       5.98241346
Si       2.36622463       1.45398341       4.88048798
Si       6.21209017       3.08030725      -0.07778667
Si      -0.33770467      -0.71964206       3.61570346
Si       6.40796458      -1.12591032       2.33890281
Si      -0.52384555       3.48036248       1.18746653
Si       2.28150302       3.71884429       3.57893193
Si      -2.57173421       2.57677371       7.27242206
Si      -0.04165503       5.35551319       1.73118352
Si       1.66636844       5.82813119       2.91661525
Si       1.64189381       4.05877661       1.73156445
Si       1.76677814       5.98614447       0.79982232
Si       1.83451204      -0.38955675       4.27802013
Si       2.12492885      -2.13780445       5.46345186
Si       1.93556429      -0.23195361       6.39481307
Si       0.23991806      -1.15668428       5.46307094
Si      -1.41725407       1.73133125       1.16391096
Si       3.39823552       3.11454299       5.06847542
Si      -1.35600090       0.03887249       2.12615996
Si      -3.87651334       3.30110755       6.00596903
Si       2.77120978       4.34146150      -0.00000000
Si       3.04267235      -1.94217624       3.60969539
22
Lattice="8.772229767266783 0.48815656104832816 0.22894671173427839 -3.250471031613916 8.16239854396087 -0.22894671173427267 -2.5678957657397237 -4.44846142657102 7.131607868302596" Properties=species:S:1:pos:R:3 unique_starting_index=6 config_type=initial n_minim_iter=4 stress="-0.054424248712394915 -0.03177580185234862 0.019001425809453736 -0.03177580185234862 -0.08392228970390679 -0.012128850423997722 0.019001425809453736 -0.012128850423997722 -0.03414135719374888" pbc="T T T"
Si      -2.49797007       4.72739606       5.78778386
Si       2.47275367       1.37628166       4.87807617
Si       6.17030182       3.07380439       0.02380405
Si      -0.24650476      -0.76745720       3.58440121
Si       6.41162379      -1.13794895       2.48247841
Si      -0.47868146       3.43845860       1.11487730
Si       2.36152129       3.65538856       3.54720665
Si      -2.37759241       2.44245163       7.10780382
Si       0.06196261       5.28485469       1.61982737
Si       1.74162060       5.73905889       2.79125680
Si       1.65801306       4.05889999       1.71506776
Si       1.75530030       5.93750247       0.78630152
Si       1.90448298      -0.45248000       4.34035106
Si       2.19965974      -2.16724620       5.51178049
Si       2.07872244      -0.35652374       6.34530634
Si       0.41569014      -1.23569135       5.41654011
Si      -1.38381636       1.70654734       1.10514095
Si       3.51204335       3.02256023       5.04696795
Si      -1.30490248       0.00969590       2.08463991
Si      -3.68782834       3.17722733       5.79752020
Si       2.76087937       4.32527756      -0.00000000
Si       3.10216700      -1.98015243       3.68027729
22
Lattice="8.768921450480722 0.5298838954463077 0.244301082998632 -3.2112292752235043 8.176965628477454 -0.24430108299862727 -2.572920033937852 -4.484869966583154 7.106368077176288" Properties=species:S:1:pos:R:3 unique_starting_index=6 config_type=initial n_minim_iter=5 stress="-0.0955732127909416 0.0022793729964174195 0.02176336163216323 0.0022793729964174195 -0.09345723037149713 -0.013891828992565866 0.02176336163216323 -0.013891828992565866 -0.09702817079143679" pbc="T T T"
Si      -2.46432886       4.72592823       5.75586599
Si       2.48727630       1.38662150       4.86428404
Si       6.18004567       3.11235891       0.03174110
Si      -0.24259211      -0.77511323       3.57169221
Si       6.40655572      -1.11510412       2.48638512
Si      -0.45995888       3.44651353       1.10620100
Si       2.38383875       3.67560010       3.53467586
Si      -2.35174802       2.43111336       7.07462697
Si       0.09760335       5.29958538       1.60760440
Si       1.77085853       5.76214652       2.76914040
Si       1.67577971       4.08673183       1.70893360
Si       1.77863855       5.96266405       0.78630048
Si       1.90809076      -0.45264792       4.33722767
Si       2.19299164      -2.16512484       5.49876367
Si       2.08669525      -0.36116981       6.32006759
Si       0.42843077      -1.24426693       5.39743447
Si      -1.37454541       1.70527058       1.09872706
Si       3.53544133       3.04259960       5.03022975
Si      -1.30160092       0.00294748       2.07613832
Si      -3.65867216       3.16325757       5.76333993
Si       2.77884609       4.35342477      -0.00000000
Si       3.09800071      -1.97749303       3.67533458
22
Lattice="8.906645485167928 0.5096561820333708 0.09059561019599935 -3.287560994244565 8.29337241003131 -0.09059561019599559 -2.733177069158416 -4.450259153932631 7.233341368855696" Properties=species:S:1:pos:R:3 unique_starting_index=6 config_type=initial n_minim_iter=6 stress="0.04002285904886788 0.01341505521033494 -0.023231468374782925 0.01341505521033494 0.052476292964905295 0.01482894009497493 -0.023231468374782925 0.01482894009497493 0.03145986538544944" pbc="T T T"
Si      -2.63053824       4.86271334       5.96336375
Si       2.43617762       1.45623015       4.92427568
Si       6.27143975       3.13138452      -0.04105420
Si      -0.31518291      -0.73845794       3.63186453
Si       6.46867484      -1.11776383       2.39966130
Si      -0.50249938       3.50435923       1.17938200
Si       2.34878426       3.75597877       3.60147684
Si      -2.53322625       2.55663354       7.27439557
Si       0.08346033       5.40236898       1.76354619
Si       1.65828414       5.87561479       2.83636393
Si       1.70233355       4.21025966       1.72132532
Si       1.76587543       5.96569999       0.83038125
Si       1.89815115      -0.47237600       4.39697743
Si       2.13191922      -2.10006888       5.46979517
Si       1.93456546      -0.33685764       6.40296011
Si       0.36904040      -1.13356311       5.51201604
Si      -1.44354528       1.73917452       1.19634723
Si       3.52346082       3.12806974       5.08080008
Si      -1.37928802       0.06267569       2.15254129
Si      -3.83545816       3.26596276       5.94639852
Si       2.80954224       4.40151430      -0.00000000
Si       3.08673421      -1.97030148       3.66196849
22
Lattice="8.907905308757742 0.4474453613668541 0.04044980586638165 -3.344519906615106 8.268323344878219 -0.040449805866378065 -2.747596250669095 -4.37964854866581 7.267875477846066" Properties=species:S:1:pos:R:3 unique_starting_index=6 config_type=initial n_minim_iter=7 stress="0.030601338694129232 -0.02540093642538854 -0.042985026867272035 -0.02540093642538854 0.007021198454694125 0.027437886323525548 -0.042985026867272035 0.027437886323525548 0.04681508832590706" pbc="T T T"
Si      -2.69697765       4.87771195       6.02389823
Si       2.39884333       1.44606496       4.93820268
Si       6.25102420       3.07369660      -0.06736088
Si      -0.33105373      -0.71901464       3.65256859
Si       6.46201347      -1.14750794       2.37012260
Si      -0.53230085       3.49597136       1.20352744
Si       2.30298397       3.73311978       3.61530689
Si      -2.59137614       2.58443859       7.33523635
Si       0.04632496       5.37283302       1.80214343
Si       1.59419651       5.84694936       2.85177430
Si       1.67058798       4.19481566       1.73137309
Si       1.71790125       5.90921679       0.84883056
Si       1.88471286      -0.47196489       4.41610118
Si       2.10634397      -2.07557715       5.46573204
Si       1.88911096      -0.33354252       6.41904491
Si       0.35397811      -1.09824960       5.53650238
Si      -1.46646375       1.74092174       1.22549292
Si       3.48375222       3.10489151       5.09507575
Si      -1.39801311       0.08751007       2.17279973
Si      -3.89560237       3.29147165       6.00193275
Si       2.78169270       4.35788436      -0.00000000
Si       3.08015453      -1.96610159       3.65416264
22
Lattice="8.925426113280444 0.43851267932290144 0.008501488921509445 -3.3599988723825147 8.280454833591177 -0.008501488921505842 -2.7755469337767193 -4.364058343204113 7.287450236151355" Properties=species:S:1:pos:R:3 unique_starting_index=6 config_type=initial n_minim_iter=8 stress="0.08428050339445735 -0.014701520361117592 -0.03432230960528432 -0.014701520361117592 0.07063282103965908 0.021908364329246185 -0.03432230960528432 0.021908364329246185 0.09366467828190968" pbc="T T T"
Si      -2.71982489       4.90950587       6.05459917
Si       2.38268051       1.44142272       4.94261922
Si       6.24696896       3.07819624      -0.08847240
Si      -0.34003407      -0.71294243       3.67798258
Si       6.45417766      -1.15746541       2.35333250
Si      -0.53727266       3.51635517       1.22434957
Si       2.28636381       3.74631964       3.60946765
Si      -2.61353808       2.59824490       7.37592263
Si       0.03693957       5.36736811       1.83969836
Si       1.56977816       5.87849376       2.85674504
Si       1.68200959       4.21301865       1.73518675
Si       1.70516649       5.89635414       0.84899712
Si       1.89565516      -0.46524270       4.43070519
Si       2.07738773      -2.07080082       5.44775187
Si       1.85485472      -0.33491881       6.43845311
Si       0.33772982      -1.06463562       5.55226348
Si      -1.48248333       1.74015046       1.25569213
Si       3.48828612       3.11524531       5.10156231
Si      -1.41848119       0.11157189       2.18588792
Si      -3.93298710       3.30433801       6.02325661
Si       2.78271362       4.35948376      -0.00000000
Si       3.07493959      -1.96277283       3.64797586
22
Lattice="8.946582985258855 0.4256018577636879 0.0274227912994996 -3.380617066124652 8.294209564851968 -0.02742279129949609 -2.7598671915840955 -4.374660798379362 7.312230305924333" Properties=species:S:1:pos:R:3 unique_starting_index=6 config_type=initial n_minim_iter=9 stress="-0.0034111121338662436 -0.013943728383618646 0.02739370326106136 -0.013943728383618646 -0.016355322742483164 -0.01748574726678999 0.02739370326106136 -0.01748574726678999 0.005489339272361576" pbc="T T T"
Si      -2.71502979       4.90212016       6.03868824
Si       2.41921043       1.42302402       4.95352481
Si       6.24391314       3.07624211      -0.06040941
Si      -0.34569952      -0.70482753       3.70428704
Si       6.45894597      -1.15559027       2.38612828
Si      -0.55092916       3.52074736       1.24611927
Si       2.31232812       3.73483874       3.60794326
Si      -2.59834429       2.58404794       7.37263972
Si       0.05057867       5.33516664       1.89064915
Si       1.53802538       5.92344518       2.82792261
Si       1.74529138       4.25316901       1.73822736
Si       1.66661339       5.84160690       0.81725852
Si       1.96547666      -0.48572131       4.48430769
Si       2.05811675      -2.08258924       5.42158115
Si       1.83710732      -0.40354046       6.49497178
Si       0.36318537      -1.00093418       5.57400294
Si      -1.51659743       1.76821607       1.28061437
Si       3.52265916       3.08760830       5.08248650
Si      -1.44234131       0.12051196       2.22974380
Si      -3.89810596       3.28836309       6.00419314
Si       2.78298296       4.35990572      -0.00000000
Si       3.09335790      -1.97452947       3.66982655
22
Lattice="8.953069602838587 0.433664129459336 0.016117872706273 -3.376035133210709 8.303487620860217 -0.016117872706269604 -2.774930569835443 -4.3772484152595394 7.3133601251389875" Properties=species:S:1:pos:R:3 unique_starting_index=6 config_type=initial n_minim_iter=10 stress="-0.00867203926883171 0.018786682660215565 0.0028542755378137183 0.018786682660215565 0.00876797177418195 -0.0018219201766316313 0.0028542755378137183 -0.0018219201766316313 -0.02066381713116644" pbc="T T T"
Si      -2.71726670       4.91689682       6.04106904
Si       2.41763619       1.42288282       4.95205592
Si       6.25060706       3.08201184      -0.05994283
Si      -0.35464219      -0.69695908       3.70287882
Si       6.45090392      -1.15160298       2.37742207
Si      -0.54706561       3.53163002       1.25617320
Si       2.31923541       3.74479272       3.61048130
Si      -2.61099247       2.58996120       7.37330295
Si       0.05578382       5.33915957       1.90211449
Si       1.53611186       5.94175668       2.82568347
Si       1.75655823       4.26945729       1.74595228
Si       1.66052165       5.84642080       0.81652532
Si       1.96782840      -0.48233514       4.48767665
Si       2.04448371      -2.07877442       5.41124563
Si       1.82897513      -0.40962688       6.49683480
Si       0.35815279      -0.98644453       5.56740784
Si      -1.52830916       1.77360290       1.28749220
Si       3.52540915       3.10014463       5.07084595
Si      -1.44719136       0.12569673       2.24251417
Si      -3.89877043       3.28669831       6.00975005
Si       2.78851723       4.36857588      -0.00000000
Si       3.08906952      -1.97179214       3.66473900
22
Lattice="8.977254933548334 0.4291010265344618 0.02643862755391315 -3.3903565360829666 8.323503853013476 -0.0264386275539115 -2.771162996561587 -4.390528004495418 7.336201491381399" Properties=species:S:1:pos:R:3 unique_starting_index=6 config_type=initial n_minim_iter=11 stress="0.02063229994356747 0.003909338791311777 0.012793679110629775 0.003909338791311777 0.024261408548030078 -0.008166367190624736 0.012793679110629775 -0.008166367190624736 0.018136916380789694" pbc="T T T"
Si      -2.72697953       4.92415800       6.04067183
Si       2.44167499       1.41735190       4.97447062
Si       6.25787264       3.07717767      -0.05121872
Si      -0.34827529      -0.68995200       3.71699491
Si       6.46371925      -1.14996982       2.38816950
Si      -0.54694391       3.53261369       1.26909103
Si       2.33654213       3.75569148       3.61920658
Si      -2.61466868       2.58123662       7.38742021
Si       0.06252651       5.33754591       1.91982578
Si       1.52982653       5.96482780       2.81913173
Si       1.76658987       4.28564752       1.76887265
Si       1.64081885       5.85815319       0.81678055
Si       1.99516894      -0.49160253       4.51706976
Si       2.04394882      -2.08661741       5.41637570
Si       1.85167981      -0.43583842       6.51942094
Si       0.37238227      -0.98380853       5.56732884
Si      -1.54412135       1.78682662       1.30331624
Si       3.55095918       3.09157981       5.07324401
Si      -1.46194952       0.13198645       2.26295747
Si      -3.89067245       3.28465986       6.00644661
Si       2.79344920       4.37630244      -0.00000000
Si       3.10304597      -1.98071348       3.68132006
22
Lattice="8.984351860875678 0.42062167998493233 0.008710417433121046 -3.4010356766339545 8.326371195422192 -0.008710417433119356 -2.7843152909315667 -4.378183440574361 7.346745874904768" Properties=species:S:1:pos:R:3 unique_starting_index=6 config_type=initial n_minim_iter=12 stress="0.023790463511349006 -0.014514085070726093 -0.015076276784251757 -0.014514085070726093 0.01031678066425992 0.009623378155969612 -0.015076276784251757 0.009623378155969612 0.033054991318012664" pbc="T T T"
Si      -2.75637088       4.93411297       6.04709665
Si       2.44735004       1.41858606       4.98687308
Si       6.25437901       3.05672893      -0.05671963
Si      -0.35008757      -0.67006572       3.71948180
Si       6.45639404      -1.14043743       2.36858321
Si      -0.54937141       3.52535729       1.29093880
Si       2.33860853       3.76915266       3.62726407
Si      -2.64489819       2.58180302       7.40346550
Si       0.05620795       5.32071008       1.93452997
Si       1.52331457       5.98195494       2.81539933
Si       1.76517105       4.28890863       1.77257506
Si       1.63304755       5.85285968       0.81973112
Si       2.00029350      -0.47795385       4.53134654
Si       2.01818576      -2.08709228       5.41221590
Si       1.83699787      -0.43277149       6.52701475
Si       0.36278532      -0.97137793       5.57417081
Si      -1.56041822       1.79851302       1.32679958
Si       3.55343688       3.08476507       5.06376370
Si      -1.48232629       0.14370929       2.28298217
Si      -3.89704245       3.29000982       6.01123587
Si       2.79165809       4.37349644      -0.00000000
Si       3.10001828      -1.97878088       3.67772814
22
Lattice="8.975994917067041 0.4318001002952423 0.0027248645861073784 -3.3873778454576526 8.323497306416986 -0.002724864586105686 -2.792011057385752 -4.379115212889409 7.333687183838102" Properties=species:S:1:pos:R:3 unique_starting_index=6 config_type=initial n_minim_iter=13 stress="0.013258318088347106 -0.00378057117597519 -0.0014779338078954665 -0.00378057117597519 0.009748746747291794 0.0009433838424718782 -0.0014779338078954665 0.0009433838424718782 0.01567150485244285" pbc="T T T"
Si      -2.77476541       4.93673694       6.02035825
Si       2.46566637       1.42185608       4.99780439
Si       6.23993677       3.03774608      -0.06069076
Si      -0.33634499      -0.64479219       3.70838310
Si       6.43559593      -1.11220017       2.33860766
Si      -0.53328486       3.50597156       1.31060407
Si       2.35335222       3.79963124       3.62530408
Si      -2.66373198       2.55977927       7.39437793
Si       0.07100751       5.31387036       1.93067144
Si       1.53068553       5.98633109       2.79924446
Si       1.77813515       4.30106219       1.76937159
Si       1.63178374       5.84492584       0.81534262
Si       1.99346385      -0.47035734       4.53444272
Si       1.99805514      -2.07747970       5.40301574
Si       1.82263777      -0.43818989       6.51834456
Si       0.36065537      -0.95543373       5.56431559
Si      -1.57703624       1.79590620       1.36086767
Si       3.58575160       3.08319657       5.03809998
Si      -1.50504981       0.17142831       2.29558720
Si      -3.88644844       3.27003322       5.97009464
Si       2.79430854       4.37764871      -0.00000000
Si       3.09199193      -1.97365755       3.66820602
22
Lattice="8.960062292749916 0.41872855734452286 -0.01532137417429829 -3.392526526232203 8.303542235907841 0.015321374174299952 -2.7966818789187724 -4.3528922298603865 7.327290382027275" Properties=species:S:1:pos:R:3 unique_starting_index=6 config_type=initial n_minim_iter=14 stress="-0.012489110680097183 -0.004446858867217402 0.0014751154778985327 -0.004446858867217402 -0.01661720871387579 -0.0009415848667846311 0.0014751154778985327 -0.0009415848667846311 -0.009650624786490775" pbc="T T T"
Si      -2.81513631       4.94156352       6.00352996
Si       2.47341665       1.41461012       5.01638436
Si       6.21428021       2.98737073      -0.06771514
Si      -0.32590223      -0.60794721       3.69650847
Si       6.40515702      -1.09506949       2.29558464
Si      -0.52172958       3.47765300       1.33908179
Si       2.35662386       3.81781210       3.63078191
Si      -2.70329407       2.54152153       7.39500552
Si       0.06315790       5.29799440       1.95323198
Si       1.50006014       5.98028305       2.79731905
Si       1.76773573       4.29284416       1.77018860
Si       1.61675140       5.82289420       0.81968680
Si       1.99620093      -0.47445954       4.52997132
Si       1.98228880      -2.06506077       5.37405840
Si       1.80431195      -0.43487772       6.50760358
Si       0.35290870      -0.94210349       5.55710178
Si      -1.60026268       1.79136197       1.39907678
Si       3.60099135       3.06959726       5.01457022
Si      -1.52847211       0.20574902       2.31272015
Si      -3.89061109       3.25332033       5.94353497
Si       2.78376788       4.36113540      -0.00000000
Si       3.08169021      -1.96708183       3.65598450
22
Lattice="8.981389984646032 0.4227045413413462 -0.023199031460198607 -3.3978994119571375 8.324561536308785 0.023199031460200265 -2.8112994884003144 -4.361151344331478 7.343128592023077" Properties=species:S:1:pos:R:3 unique_starting_index=6 config_type=initial n_minim_iter=15 stress="0.00895900098900341 0.010695249212956871 0.006063494273565607 0.010695249212956871 0.018887590711594248 -0.0038704050858264275 0.006063494273565607 -0.0038704050858264275 0.0021320866419902544" pbc="T T T"
Si      -2.88202888       4.97824967       5.96943935
Si       2.52620659       1.40451557       5.08463033
Si       6.19932815       2.92625481      -0.06587952
Si      -0.29406613      -0.54001887       3.69206694
Si       6.38048537      -1.05571932       2.23529922
Si      -0.48028091       3.44518356       1.39688827
Si       2.40617213       3.89202425       3.65106165
Si      -2.76705198       2.49396929       7.40900810
Si       0.07071927       5.29784620       1.98371721
Si       1.48819670       6.01835676       2.79086572
Si       1.78473392       4.31966647       1.77142089
Si       1.61458202       5.82178591       0.81979033
Si       2.02111289      -0.47744976       4.55226286
Si       1.96435331      -2.06652372       5.35941138
Si       1.78960240      -0.44557118       6.52333826
Si       0.35546382      -0.92365171       5.57170770
Si      -1.63643498       1.80112336       1.44670541
Si       3.64852004       3.07017667       4.99466613
Si      -1.56257453       0.24084488       2.34846245
Si      -3.88651834       3.23738003       5.91962221
Si       2.79174529       4.37363304      -0.00000000
Si       3.08504525      -1.96922340       3.65996478
22
Lattice="8.999961331658323 0.46400204077980306 -0.06083276502885086 -3.3682592415436443 8.358793665771895 0.060832765028852445 -2.867127344970825 -4.378667542499001 7.33656280764227" Properties=species:S:1:pos:R:3 unique_starting_index=6 config_type=initial n_minim_iter=16 stress="0.010761299206459296 0.05855418465469031 -0.01581137063802115 0.05855418465469031 0.06511818836363971 0.010092597860290162 -0.01581137063802115 0.010092597860290162 -0.026614573537303773" pbc="T T T"
Si      -3.04757582       5.07541925       5.82621093
Si       2.66936304       1.37478995       5.23882038
Si       6.09255384       2.76636135      -0.08049032
Si      -0.18594059      -0.32783609       3.68947322
Si       6.25599490      -0.91460252       2.03690966
Si      -0.34863263       3.35264967       1.57118463
Si       2.54549415       4.13744576       3.64708958
Si      -2.92295791       2.31228534       7.41705313
Si       0.09368686       5.30497252       2.03071837
Si       1.48690925       6.10369538       2.77534024
Si       1.83867690       4.38151326       1.79144418
Si       1.60225038       5.83968173       0.80759721
Si       2.04323371      -0.46020476       4.56122256
Si       1.90531966      -2.06020680       5.30584443
Si       1.75519883      -0.46673839       6.52896559
Si       0.33302338      -0.86620024       5.54511863
Si      -1.68549463       1.82958319       1.51826829
Si       3.70252031       3.09171501       4.93143450
Si      -1.62160099       0.28137778       2.40512831
Si      -3.86623652       3.22157832       5.87912728
Si       2.81585104       4.41139786      -0.00000000
Si       3.06641699      -1.95733275       3.63786502
22
Lattice="9.00770892715751 0.47195924085777974 -0.06662250150767818 -3.3643035068551295 8.369171258564727 0.06662250150767986 -2.8778592746291562 -4.38471980433737 7.3388120586382" Properties=species:S:1:pos:R:3 unique_starting_index=6 config_type=initial n_minim_iter=17 stress="0.017658281956905924 0.06794584654176199 -0.015766892356424422 0.06794584654176199 0.08073361757880268 0.010064206810584906 -0.015766892356424422 0.010064206810584906 -0.025712407366020935" pbc="T T T"
Si      -3.09938046       5.10539812       5.77711685
Si       2.71989366       1.35852689       5.29282758
Si       6.05673876       2.70710223      -0.07996361
Si      -0.14816942      -0.25692299       3.69002757
Si       6.21698487      -0.87371066       1.97936197
Si      -0.30640579       3.32260706       1.62831771
Si       2.59488519       4.21384434       3.64878448
Si      -2.97236224       2.24879782       7.41877567
Si       0.09911518       5.30154980       2.04547436
Si       1.48615535       6.12993953       2.76892304
Si       1.85465861       4.39843953       1.79840130
Si       1.59578635       5.84248537       0.80323306
Si       2.05662403      -0.45589162       4.56988901
Si       1.88919773      -2.06277631       5.29333769
Si       1.74973142      -0.47747349       6.53557900
Si       0.33091591      -0.85063001       5.54041076
Si      -1.70146896       1.83886807       1.53827827
Si       3.72077194       3.09387908       4.91522304
Si      -1.63805423       0.29279183       2.42358901
Si      -3.85786538       3.21532318       5.86715629
Si       2.82170271       4.42056525      -0.00000000
Si       3.06492483      -1.95638028       3.63609478
22
Lattice="9.01266360524821 0.47089298330098744 -0.031962012469251386 -3.3673566608808843 8.373216501530838 0.03196201246925313 -2.8495941360183483 -4.404858175945024 7.343562129042588" Properties=species:S:1:pos:R:3 unique_starting_index=6 config_type=initial n_minim_iter=18 stress="0.01563777548076444 0.045853896784912355 -0.011163952983988546 0.045853896784912355 0.05820476193375447 0.007126092391235695 -0.011163952983988546 0.007126092391235695 -0.01363134403307414" pbc="T T T"
Si      -3.12567292       5.12047269       5.67461350
Si       2.81202484       1.30352301       5.35776120
Si       5.98325298       2.61577898      -0.04051114
Si      -0.08856687      -0.15464152       3.70758407
Si       6.16152449      -0.83450499       1.95383891
Si      -0.25645080       3.28901192       1.70091064
Si       2.69273289       4.29380982       3.63597805
Si      -2.99599339       2.12355536       7.38407326
Si       0.09631154       5.26661778       2.03851989
Si       1.51057315       6.15526772       2.75249130
Si       1.88218009       4.39401046       1.82236998
Si       1.57152574       5.84902574       0.77765171
Si       2.09758287      -0.44321817       4.59107082
Si       1.88695805      -2.10016469       5.30504224
Si       1.79414314      -0.51686392       6.56591041
Si       0.34357665      -0.84766966       5.52119215
Si      -1.67778943       1.84427280       1.48417881
Si       3.69603106       3.09124820       4.93702501
Si      -1.60175912       0.24910453       2.40653711
Si      -3.83772051       3.22298412       5.89134533
Si       2.82265347       4.42205475      -0.00000000
Si       3.08153473      -1.96698259       3.65580006
22
Lattice="9.019511360232775 0.4362240706675633 -0.0040354305239665555 -3.4016862177410125 8.36483158785807 0.0040354305239682624 -2.8123134545165795 -4.398357002456805 7.367987623115363" Properties=species:S:1:pos:R:3 unique_starting_index=6 config_type=initial n_minim_iter=19 stress="0.027496992065100687 0.007721060250190544 -0.00596132805690874 0.007721060250190544 0.0346645893712655 0.0038051910975356383 -0.00596132805690874 0.0038051910975356383 0.022568543127201593" pbc="T T T"
Si      -3.15809221       5.11085054       5.62336528
Si       2.87581959       1.26281990       5.40783738
Si       5.94362103       2.52389172       0.00822134
Si      -0.06669898      -0.08171314       3.71597657
Si       6.14187441      -0.82194420       1.95611480
Si      -0.24857842       3.25367109       1.74865777
Si       2.75947493       4.30779656       3.65201105
Si      -3.02537361       2.05542219       7.35976628
Si       0.08431483       5.22864583       2.04003060
Si       1.50251217       6.14544694       2.74217294
Si       1.89505094       4.38053958       1.83500620
Si       1.53577606       5.81650467       0.75955473
Si       2.12934939      -0.44816344       4.62581468
Si       1.89484698      -2.12053199       5.32795702
Si       1.81697670      -0.55648151       6.60843289
Si       0.36321968      -0.83516541       5.53298142
Si      -1.65335157       1.82392245       1.43632657
Si       3.66764936       3.08381805       4.99299897
Si      -1.55926881       0.22673378       2.37498865
Si      -3.86351696       3.23469898       5.93569648
Si       2.80891257       4.40052783      -0.00000000
Si       3.10359895      -1.98106646       3.68197609
22
Lattice="9.030312701633022 0.41130799958555986 0.017848498602445195 -3.428833957072193 8.364138894986485 -0.017848498602443513 -2.7856939272893957 -4.3973271451184255 7.390498200457616" Properties=species:S:1:pos:R:3 unique_starting_index=6 config_type=initial n_minim_iter=20 stress="0.04498681530749359 -0.014983061235975466 0.017910672102043595 -0.014983061235975466 0.031077773560224856 -0.01143260853672197 0.017910672102043595 -0.01143260853672197 0.05455068836630245" pbc="T T T"
Si      -3.20235994       5.10854233       5.57147221
Si       2.94422443       1.23169965       5.46579340
Si       5.92310866       2.43787844       0.05268791
Si      -0.04896000      -0.01195101       3.70949842
Si       6.12226799      -0.79688574       1.94255330
Si      -0.23256284       3.21288328       1.80117749
Si       2.82555759       4.32867887       3.68099977
Si      -3.06813662       2.00163321       7.33781029
Si       0.09182942       5.19878637       2.05307059
Si       1.48654079       6.14466160       2.71977305
Si       1.91415405       4.39031976       1.84702801
Si       1.49933051       5.78175151       0.74871457
Si       2.16198079      -0.46195111       4.67072514
Si       1.89121863      -2.12525734       5.33742761
Si       1.82741745      -0.60314135       6.64178362
Si       0.39066762      -0.81269040       5.54347019
Si      -1.63646508       1.80716945       1.41059579
Si       3.65894303       3.07732811       5.03875731
Si      -1.53487049       0.21713416       2.35174089
Si      -3.88635053       3.24329979       5.96205390
Si       2.80073937       4.38772345      -0.00000000
Si       3.12230939      -1.99300957       3.70417335
22
Lattice="9.036532683828533 0.3993232508796449 0.0028983330446271534 -3.4423234743263253 8.36473496906481 -0.0028983330446254595 -2.7946609008714858 -4.38358895706654 7.4021894537733095" Properties=species:S:1:pos:R:3 unique_starting_index=6 config_type=initial n_minim_iter=21 stress="0.012198157213723474 -0.02472865803522554 -0.0028495097987543943 -0.02472865803522554 -0.01075789506082016 0.001818878145111519 -0.0028495097987543943 0.001818878145111519 0.027982773110765233" pbc="T T T"
Si      -3.20880960       5.10920534       5.59578208
Si       2.93151966       1.23524871       5.45663649
Si       5.93987708       2.45012382       0.05200363
Si      -0.07502764      -0.02627503       3.71364386
Si       6.12808910      -0.80516200       1.94845130
Si      -0.25170254       3.22164650       1.80350904
Si       2.80730335       4.30135300       3.68854559
Si      -3.07305617       2.03573675       7.35018582
Si       0.09551773       5.18830987       2.07568445
Si       1.46389329       6.15121108       2.71102730
Si       1.93579812       4.41423964       1.85959140
Si       1.46435701       5.75031105       0.74334038
Si       2.16848951      -0.46599796       4.69116215
Si       1.87119608      -2.11258444       5.32650500
Si       1.80465675      -0.63436293       6.65884907
Si       0.39428474      -0.76924922       5.54259805
Si      -1.62659626       1.80861507       1.39870140
Si       3.62916798       3.08057444       5.05798935
Si      -1.52835708       0.20523156       2.34420010
Si      -3.91165070       3.26719422       6.00058971
Si       2.79710460       4.38202911      -0.00000000
Si       3.12093589      -1.99213285       3.70254389
