24
Lattice="15.522823890172234 1.2425333854501126 -7.931587605288367 -7.027374401724939 6.985732299310336 6.651073870318302 -8.868566510427053 3.7687297823010177 19.956612775222748" Properties=species:S:1:pos:R:3 unique_starting_index=90 config_type=initial n_minim_iter=1 energy=-4239.164622889555 free_energy=-4239.164622889555 pbc="T T T"
Si       7.36910754       3.62724030       7.59899490
Si      -3.61152108       1.83784189       4.76330186
Si       5.92888017       8.32920882       5.17156176
Si      -2.80138665       1.90436341       4.12796778
Si       1.92856468       7.05193432      16.51986483
Si     -13.47760416       8.31403213      22.48769440
Si      -2.88136932       2.48600405       5.10448002
Si       1.89234430       8.51107965      15.13169955
Si     -13.83339595       9.99334281      21.99298928
Si       6.42753869       5.70416672       6.13160447
Si       1.13755930       5.63891209       3.03554138
Si       5.96557840       7.83371109       4.38099780
Si       4.72586776       9.50285203       2.66993044
Si       3.56054189       5.71931406      10.75862835
Si      -4.08475433       4.12409686       3.46209069
Si     -14.58248330      10.02228485      22.68300689
Si      -3.92084459       2.28183704       5.60776487
Si       1.73031047       8.96577278      15.94032861
Si      -3.20501516       6.68983791      15.31722129
Si      -8.39703215       5.12457433      14.56924267
Si       1.08423502      10.57191928      13.55200922
Si      11.53494977       2.18849315      -2.62623570
Si       7.40871406       5.89200953       5.69963946
Si       0.58923214       6.65386134       4.79785126
24
Lattice="15.522763643091238 1.2425337318158969 -7.931550308335817 -7.027424720014744 6.985892699441101 6.650915561200876 -8.868458238234894 3.7685200392489104 19.956630444570898" Properties=species:S:1:pos:R:3 unique_starting_index=90 config_type=initial n_minim_iter=2 stress="0.000384818994076405 -0.00027966701258021843 0.00018282063994916773 -0.00027966701258021843 0.0005983207337131752 -0.00024703981707621225 0.00018282063994916773 -0.00024703981707621225 0.00037152198573634935" pbc="T T T"
Si       7.36912605       3.62707838       7.59904137
Si      -3.61150636       1.83784662       4.76326708
Si       5.92881628       8.32926984       5.17148095
Si      -2.80137618       1.90436216       4.12794231
Si       1.92860996       7.05174479      16.51988142
Si     -13.47754577       8.31397923      22.48759319
Si      -2.88136444       2.48600003       5.10444807
Si       1.89236137       8.51096420      15.13165112
Si     -13.83336290       9.99334919      21.99284331
Si       6.42753023       5.70411146       6.13158632
Si       1.13750865       5.63900483       3.03544640
Si       5.96551986       7.83376112       4.38092057
Si       4.72576358       9.50301347       2.66977697
Si       3.56056425       5.71920032      10.75862927
Si      -4.08477655       4.12420437       3.46199349
Si     -14.58244599      10.02228921      22.68285620
Si      -3.92082848       2.28183316       5.60773120
Si       1.73032150       8.96566474      15.94029190
Si      -3.20497632       6.68974063      15.31718488
Si      -8.39698771       5.12451551      14.56918377
Si       1.08420456      10.57192371      13.55190170
Si      11.53492292       2.18845343      -2.62620461
Si       7.40869245       5.89195724       5.69962229
Si       0.58918294       6.65394976       4.79775338
24
Lattice="15.518160791362195 1.243963786340025 -7.930586832361147 -7.025244514032334 6.984567798442433 6.648829299104005 -8.8659992445358 3.7653039420597176 19.952688801830003" Properties=species:S:1:pos:R:3 unique_starting_index=90 config_type=initial n_minim_iter=3 stress="-0.001226986521719805 0.00045135980642769597 -0.00026998654747706184 0.00045135980642769597 0.0005306480660269776 -0.00037829714400321846 -0.00026998654747706184 -0.00037829714400321846 9.845389824307229e-05" pbc="T T T"
Si       7.36638726       3.62599390       7.59681255
Si      -3.61027407       1.83726262       4.76200804
Si       5.92687755       8.32864070       5.16949582
Si      -2.80034410       1.90343886       4.12715772
Si       1.92763408       7.04898863      16.51615857
Si     -13.47368147       8.31063933      22.48264521
Si      -2.88055405       2.48492602       5.10333922
Si       1.89163910       8.50813420      15.12728858
Si     -13.82922434       9.98969711      21.98776382
Si       6.42579328       5.70307956       6.12946117
Si       1.13716872       5.63862756       3.03381352
Si       5.96378500       7.83275009       4.37913266
Si       4.72427848       9.50237131       2.66756970
Si       3.55943055       5.71763775      10.75584356
Si      -4.08305526       4.12361274       3.46083857
Si     -14.57808548      10.01860104      22.67750898
Si      -3.91947441       2.28079902       5.60651050
Si       1.72938395       8.96305118      15.93633465
Si      -3.20403428       6.68716039      15.31367768
Si      -8.39449085       5.12187667      14.56592204
Si       1.08364592      10.56971211      13.54783597
Si      11.53178783       2.18874763      -2.62613850
Si       7.40631927       5.89104753       5.69755103
Si       0.58903934       6.65314091       4.79602369
24
Lattice="15.520482556216816 1.2413125914358984 -7.928014133913054 -7.027140461786138 6.98435692654493 6.647320491825995 -8.866685707906761 3.7662293433623533 19.9488729212024" Properties=species:S:1:pos:R:3 unique_starting_index=90 config_type=initial n_minim_iter=4 stress="-4.669563932093522e-05 -0.00028591977546268174 0.00024468509636086066 -0.00028591977546268174 -0.00014483591204345384 7.435545775283672e-05 0.00024468509636086066 7.435545775283672e-05 -5.9292602831525815e-05" pbc="T T T"
Si       7.36758467       3.62434956       7.59610854
Si      -3.61074559       1.83768928       4.76080454
Si       5.92724820       8.32639964       5.16966893
Si      -2.80062813       1.90335493       4.12645052
Si       1.92814580       7.04764117      16.51401361
Si     -13.47578089       8.31181237      22.47816929
Si      -2.88107444       2.48480371       5.10246325
Si       1.89200754       8.50613872      15.12493454
Si     -13.83156315       9.99028570      21.98337445
Si       6.42695566       5.70107630       6.12903832
Si       1.13678621       5.63762732       3.03329253
Si       5.96429026       7.83019298       4.37930363
Si       4.72391594       9.49981108       2.66747792
Si       3.56024958       5.71631513      10.75456889
Si      -4.08386767       4.12353526       3.46002725
Si     -14.58057824      10.01940306      22.67283316
Si      -3.91997306       2.28098780       5.60539420
Si       1.72950969       8.96126580      15.93428066
Si      -3.20430812       6.68653914      15.31124994
Si      -8.39567367       5.12223280      14.56296574
Si       1.08329075      10.56779263      13.54590285
Si      11.53372497       2.18648425      -2.62471829
Si       7.40736627       5.88887279       5.69730049
Si       0.58858338       6.65193444       4.79554495
24
Lattice="15.525999620174279 1.2436806926214226 -7.929984956888759 -7.029139665731146 6.983129777354506 6.647670683720132 -8.871527355076907 3.764057584160312 19.949059535352944" Properties=species:S:1:pos:R:3 unique_starting_index=90 config_type=initial n_minim_iter=5 stress="0.000683540276474971 0.00040927890245555354 -2.1020285767669472e-05 0.00040927890245555354 0.00019093627881368216 0.00015908517904236896 -2.1020285767669472e-05 0.00015908517904236896 0.0003284872243019507" pbc="T T T"
Si       7.36854939       3.62468521       7.59442895
Si      -3.61210306       1.83696487       4.76081632
Si       5.92925050       8.32688241       5.16867328
Si      -2.80144536       1.90258400       4.12661381
Si       1.92686529       7.04684746      16.51288749
Si     -13.48170389       8.30946094      22.47876227
Si      -2.88220760       2.48414285       5.10270540
Si       1.89135752       8.50551264      15.12328148
Si     -13.83708040       9.98750047      21.98387013
Si       6.42862575       5.70141986       6.12739780
Si       1.13729629       5.63790074       3.03233935
Si       5.96620760       7.83067405       4.37799083
Si       4.72581653       9.50006917       2.66589539
Si       3.56039751       5.71634115      10.75326166
Si      -4.08494401       4.12285796       3.46019473
Si     -14.58656955      10.01651006      22.67340779
Si      -3.92141875       2.28018233       5.60572022
Si       1.72862453       8.96070964      15.93266506
Si      -3.20649028       6.68522582      15.31084793
Si      -8.39937032       5.12035450      14.56322133
Si       1.08279673      10.56717583      13.54451747
Si      11.53755786       2.18798795      -2.62651538
Si       7.40926077       5.88941955       5.69546581
Si       0.58887518       6.65188752       4.79504349
24
Lattice="15.524502994809112 1.241355919650638 -7.9306932444819225 -7.031570410488277 6.981349729966506 6.643950114193621 -8.876403341532475 3.759290688185904 19.939983349191035" Properties=species:S:1:pos:R:3 unique_starting_index=90 config_type=initial n_minim_iter=6 stress="-0.00011679644854934538 -0.00011343457080080244 6.282163436406695e-05 -0.00011343457080080244 -0.0003382897567450535 -0.00018377377550392527 6.282163436406695e-05 -0.00018377377550392527 -5.985320882814186e-05" pbc="T T T"
Si       7.36287895       3.61856381       7.58713571
Si      -3.61300563       1.83579323       4.75826848
Si       5.92424268       8.32147498       5.16291107
Si      -2.80186650       1.90111702       4.12466483
Si       1.91893206       7.03940280      16.50182834
Si     -13.48772303       8.30556407      22.46849478
Si      -2.88357909       2.48276330       5.10059384
Si       1.88415286       8.49776656      15.11195167
Si     -13.84281351       9.98227191      21.97311664
Si       6.42401341       5.69575280       6.12016875
Si       1.13432678       5.63604223       3.02759408
Si       5.96109155       7.82576449       4.37188622
Si       4.72077364       9.49486301       2.65940125
Si       3.55497327       5.71082403      10.74478233
Si      -4.08663932       4.12166862       3.45819578
Si     -14.59286877      10.01126750      22.66253052
Si      -3.92244304       2.27895983       5.60351733
Si       1.72098615       8.95267085      15.92037219
Si      -3.21188501       6.67928574      15.30215527
Si      -8.40304172       5.11678028      14.55632755
Si       1.07522512      10.55975775      13.53371237
Si      11.53535982       2.18464084      -2.62946147
Si       7.40427760       5.88366038       5.68794272
Si       0.58539825       6.64890508       4.79067636
24
Lattice="15.526955900634691 1.2408118485805004 -7.93221442713811 -7.0334027098775 6.9836240404533445 6.64464848215272 -8.880682267732379 3.7616535852498356 19.938807900934943" Properties=species:S:1:pos:R:3 unique_starting_index=90 config_type=initial n_minim_iter=7 stress="0.00010912795276726675 -0.00015083822778144093 -0.0002619989610926262 -0.00015083822778144093 0.0005481746751351473 0.0002957060918554379 -0.0002619989610926262 0.0002957060918554379 -0.00031349659626569044" pbc="T T T"
Si       7.36159256       3.61942455       7.58486783
Si      -3.61409682       1.83637592       4.75818948
Si       5.92334763       8.32404608       5.16187218
Si      -2.80266543       1.90181966       4.12454933
Si       1.91562923       7.04234837      16.49947794
Si     -13.49277488       8.30989639      22.46822920
Si      -2.88463913       2.48389949       5.10081481
Si       1.88136785       8.50047248      15.10972526
Si     -13.84772026       9.98645139      21.97295278
Si       6.42320096       5.69712813       6.11821397
Si       1.13359562       5.63806205       3.02667320
Si       5.96052632       7.82792733       4.37085842
Si       4.72014749       9.49687418       2.65834358
Si       3.55323492       5.71303700      10.74283298
Si      -4.08778151       4.12272776       3.45878650
Si     -14.59821927      10.01550650      22.66238534
Si      -3.92355695       2.27996268       5.60363001
Si       1.71817778       8.95563708      15.91817631
Si      -3.21488722       6.68176064      15.30115909
Si      -8.40616525       5.11909371      14.55608781
Si       1.07238522      10.56306996      13.53219019
Si      11.53672103       2.18465833      -2.63107503
Si       7.40369597       5.88508608       5.68580483
Si       0.58443815       6.65104238       4.79054177
24
Lattice="15.526991198845822 1.242553940578669 -7.932635324554295 -7.032912053458992 6.9814819487073825 6.644123043573527 -8.88012697518818 3.758161062312373 19.939618254376178" Properties=species:S:1:pos:R:3 unique_starting_index=90 config_type=initial n_minim_iter=8 stress="0.00010010547840208496 0.00015256659838767207 9.240931728267552e-05 0.00015256659838767207 -6.86802371232135e-05 -1.0691877253941196e-05 9.240931728267552e-05 -1.0691877253941196e-05 0.0004760304540417301" pbc="T T T"
Si       7.36181305       3.61817517       7.58510872
Si      -3.61389516       1.83511835       4.75816949
Si       5.92388142       8.32291895       5.16154051
Si      -2.80248258       1.90092577       4.12443184
Si       1.91619889       7.03962657      16.49991460
Si     -13.49180595       8.30568478      22.46873228
Si      -2.88432956       2.48289736       5.10109594
Si       1.88213595       8.49747433      15.10953547
Si     -13.84665386       9.98158269      21.97311125
Si       6.42365671       5.69582702       6.11786110
Si       1.13385990       5.63746739       3.02565618
Si       5.96117545       7.82685527       4.37051051
Si       4.72056737       9.49535147       2.65711174
Si       3.55390468       5.71137482      10.74292095
Si      -4.08757966       4.12129093       3.45857882
Si     -14.59729787      10.01043108      22.66252300
Si      -3.92313208       2.27871496       5.60372617
Si       1.71920583       8.95246095      15.91832536
Si      -3.21410444       6.67863304      15.30167385
Si      -8.40544377       5.11606438      14.55648729
Si       1.07305651      10.56005133      13.53197028
Si      11.53692169       2.18540715      -2.63141840
Si       7.40427556       5.88389350       5.68538348
Si       0.58495237       6.64983595       4.79032912
24
Lattice="15.526548520098904 1.2419429935264468 -7.930425766303388 -7.033980701265297 6.980525429281582 6.640174801120305 -8.882108795275801 3.7553316588662082 19.929532278351846" Properties=species:S:1:pos:R:3 unique_starting_index=90 config_type=initial n_minim_iter=9 stress="-7.833131403383269e-05 -5.49899214819201e-05 0.00014179153444343406 -5.49899214819201e-05 6.18176514912622e-05 0.00010118037187648823 0.00014179153444343406 0.00010118037187648823 -0.0002115227767876762" pbc="T T T"
Si       7.35966076       3.61508755       7.57971830
Si      -3.61434593       1.83415332       4.75560722
Si       5.92170756       8.32082588       5.15710079
Si      -2.80319882       1.90052584       4.12200410
Si       1.91314689       7.03560578      16.49005328
Si     -13.49379319       8.30326082      22.45741818
Si      -2.88488277       2.48233465       5.09882722
Si       1.87912663       8.49343326      15.09933550
Si     -13.84906287       9.97819064      21.96161873
Si       6.42167639       5.69312555       6.11247753
Si       1.13240554       5.63726718       3.02169130
Si       5.95961527       7.82477045       4.36659422
Si       4.71829760       9.49301268       2.65288007
Si       3.55197261       5.70892485      10.73574390
Si      -4.08824195       4.12042829       3.45669335
Si     -14.60000989      10.00691150      22.65053100
Si      -3.92329553       2.27794416       5.60080262
Si       1.71646440       8.94883133      15.90832649
Si      -3.21614104       6.67528426      15.29351751
Si      -8.40665332       5.11386665      14.54915980
Si       1.06972189      10.55646467      13.52321149
Si      11.53592254       2.18453345      -2.63202684
Si       7.40248727       5.88105734       5.68013806
Si       0.58361707       6.64877540       4.78713114
24
Lattice="15.532281294561312 1.2432246981376314 -7.936627854213625 -7.038972622336936 6.977807344586888 6.6391305246134555 -8.893932580666648 3.7480607039808786 19.926659060079558" Properties=species:S:1:pos:R:3 unique_starting_index=90 config_type=initial n_minim_iter=10 stress="2.8702560705882444e-05 -4.6318719616129746e-05 -0.00018616200294231997 -4.6318719616129746e-05 -3.255494112261514e-05 -0.00011174840897516728 -0.00018616200294231997 -0.00011174840897516728 -5.62559522232191e-05" pbc="T T T"
Si       7.35557337       3.61044697       7.57219177
Si      -3.61741891       1.83226705       4.75493735
Si       5.91878467       8.31709647       5.15003219
Si      -2.80648856       1.89923426       4.12120141
Si       1.90382158       7.02811133      16.48120499
Si     -13.50683681       8.29536905      22.45504614
Si      -2.88806611       2.48047687       5.09845166
Si       1.87016851       8.48546470      15.09017436
Si     -13.86301166       9.96939495      21.95865969
Si       6.41848123       5.68911417       6.10450382
Si       1.12976934       5.63677586       3.01609228
Si       5.95726091       7.82212420       4.35909100
Si       4.71589295       9.48989613       2.64519496
Si       3.54648968       5.70428577      10.72803370
Si      -4.09077805       4.11894697       3.45613065
Si     -14.61481500       9.99798157      22.64746487
Si      -3.92636645       2.27589464       5.60026108
Si       1.70757823       8.94133608      15.89955083
Si      -3.22493350       6.66823676      15.28896957
Si      -8.41530970       5.10820483      14.54733560
Si       1.06104337      10.54977917      13.51474112
Si      11.53840719       2.18413552      -2.63842956
Si       7.39979223       5.87686213       5.67191132
Si       0.58058708       6.64674474       4.78362107
24
Lattice="15.53312914753109 1.242834452496866 -7.935492382139404 -7.040047927153151 6.978685471481193 6.637306370000561 -8.896081975544304 3.7481576974316915 19.920744182936314" Properties=species:S:1:pos:R:3 unique_starting_index=90 config_type=initial n_minim_iter=11 stress="-0.00017543321948568165 -7.594168758566112e-07 0.000312257641151155 -7.594168758566112e-07 0.00013676638087772112 0.00020264991147774618 0.000312257641151155 0.00020264991147774618 -4.899890213672168e-05" pbc="T T T"
Si       7.35436538       3.60938097       7.56867609
Si      -3.61778621       1.83251941       4.75331030
Si       5.91773720       8.31738566       5.14840561
Si      -2.80773559       1.89936374       4.12002806
Si       1.90204698       7.02803611      16.47498242
Si     -13.50837504       8.29638709      22.44918933
Si      -2.88860078       2.48049489       5.09770970
Si       1.86724320       8.48580645      15.08455236
Si     -13.86580741       9.97004078      21.95292248
Si       6.41778386       5.68911591       6.10106128
Si       1.12830893       5.63920784       3.01229341
Si       5.95680628       7.82292625       4.35629264
Si       4.71468669       9.49001396       2.64273201
Si       3.54578295       5.70503327      10.72327162
Si      -4.09133193       4.11932087       3.45532977
Si     -14.61759811       9.99861252      22.64105994
Si      -3.92635955       2.27609934       5.59886018
Si       1.70597757       8.94157004      15.89382572
Si      -3.22644226       6.66770298      15.28529628
Si      -8.41662203       5.10828790      14.54311429
Si       1.05834788      10.55016120      13.50989008
Si      11.53907934       2.18368293      -2.63882381
Si       7.39880033       5.87646364       5.66907367
Si       0.58002540       6.64821404       4.78276885
24
Lattice="15.543708396060687 1.2448834204621846 -7.944986801046041 -7.047734326942396 6.975830995506191 6.637346395800576 -8.913998889568798 3.739990031522872 19.91914393655488" Properties=species:S:1:pos:R:3 unique_starting_index=90 config_type=initial n_minim_iter=12 stress="2.867704477191753e-05 -4.6043604789568496e-05 -0.0001685804482091259 -4.6043604789568496e-05 -3.075344947748898e-05 -0.00010044443348003633 -0.0001685804482091259 -0.00010044443348003633 -9.794898464781984e-05" pbc="T T T"
Si       7.35044978       3.60445665       7.55891393
Si      -3.62249766       1.83067179       4.75345765
Si       5.91466670       8.31373646       5.13924027
Si      -2.81239273       1.89744801       4.11995703
Si       1.88997592       7.02022400      16.46460549
Si     -13.52915714       8.28760343      22.44876122
Si      -2.89334196       2.47794240       5.09783354
Si       1.85475925       8.47874426      15.07465583
Si     -13.88756859       9.96078429      21.95219059
Si       6.41487036       5.68554962       6.09128922
Si       1.12481299       5.63974469       3.00515727
Si       5.95564662       7.81980051       4.34681871
Si       4.71281550       9.48741999       2.63353525
Si       3.53907820       5.70049293      10.71372064
Si      -4.09546348       4.11738474       3.45572313
Si     -14.63974618       9.98874743      22.64029585
Si      -3.93124318       2.27368649       5.59930472
Si       1.69426431       8.93351856      15.88357809
Si      -3.23909865       6.65983484      15.28135382
Si      -8.43015408       5.10190450      14.54230924
Si       1.04683839      10.54329379      13.49991173
Si      11.54468794       2.18371561      -2.64756840
Si       7.39592699       5.87271848       5.65910104
Si       0.57640828       6.64668121       4.77904943
24
Lattice="15.552197829204813 1.2477591177584182 -7.952654148393738 -7.05327968121994 6.9735335105990135 6.637552080689605 -8.927916972805633 3.7332170923659143 19.918261654232214" Properties=species:S:1:pos:R:3 unique_starting_index=90 config_type=initial n_minim_iter=13 stress="7.996628580712726e-06 0.00026573665207018927 0.00016651303666403555 0.00026573665207018927 -3.157470143857422e-05 -0.00013805731657030894 0.00016651303666403555 -0.00013805731657030894 -2.2366952579873036e-05" pbc="T T T"
Si       7.34768792       3.60133769       7.55083441
Si      -3.62607876       1.82858121       4.75395582
Si       5.91299008       8.31122812       5.13215290
Si      -2.81601915       1.89537220       4.12014745
Si       1.88126330       7.01457659      16.45621846
Si     -13.54530933       8.28088316      22.44887308
Si      -2.89662760       2.47550081       5.09852125
Si       1.84542268       8.47314397      15.06751947
Si     -13.90449696       9.95326528      21.95244492
Si       6.41304432       5.68356424       6.08358228
Si       1.12153562       5.64239308       2.99770192
Si       5.95553744       7.81884637       4.33921042
Si       4.71168781       9.48663165       2.62612466
Si       3.53478665       5.69817945      10.70560594
Si      -4.09853503       4.11543245       3.45654852
Si     -14.65629698       9.98036306      22.64026306
Si      -3.93452528       2.27146890       5.60019030
Si       1.68582258       8.92874442      15.87614248
Si      -3.24845019       6.65319230      15.27970188
Si      -8.44029886       5.09651280      14.54220466
Si       1.03804316      10.53873856      13.49190571
Si      11.54954092       2.18474237      -2.65489557
Si       7.39377621       5.87068320       5.65134066
Si       0.57437614       6.64674014       4.77692063
24
Lattice="15.563015155083342 1.2419472964272933 -7.968179564345678 -7.065095293962503 6.975620137905126 6.64247656058 -8.95328047263114 3.7337417994754625 19.922625332637942" Properties=species:S:1:pos:R:3 unique_starting_index=90 config_type=initial n_minim_iter=14 stress="-0.00018201639388080312 -0.0003248844166326422 -0.0002621458001741499 -0.0003248844166326422 -0.00031661563497180475 0.0001319765702621675 -0.0002621458001741499 0.0001319765702621675 0.0006965326595412361" pbc="T T T"
Si       7.33857367       3.59613524       7.53908395
Si      -3.63272749       1.82862419       4.75700118
Si       5.90424565       8.30629213       5.12327502
Si      -2.82244108       1.89480517       4.12234485
Si       1.86061194       7.01025469      16.44823697
Si     -13.57629945       8.28405920      22.45727671
Si      -2.90334715       2.47491214       5.10138240
Si       1.82399042       8.46960905      15.05972697
Si     -13.93676174       9.95536960      21.96182021
Si       6.40475093       5.67920545       6.07345738
Si       1.11305748       5.64636247       2.98914174
Si       5.94882494       7.81604595       4.32941184
Si       4.70411807       9.48400188       2.61776582
Si       3.52242520       5.69618549      10.69590614
Si      -4.10536483       4.11596940       3.46006207
Si     -14.68850315       9.98274104      22.64951035
Si      -3.94126166       2.27194997       5.60361697
Si       1.66505711       8.92506794      15.87014534
Si      -3.26854724       6.64985156      15.28171544
Si      -8.45963478       5.09734252      14.54767499
Si       1.01719307      10.53531313      13.48497725
Si      11.55402102       2.17967310      -2.66828392
Si       7.38520325       5.86566908       5.64069468
Si       0.56688607       6.64777068       4.77595187
24
Lattice="15.572535827507517 1.2486604643565709 -7.967604447717423 -7.0699173771198875 6.974189353464497 6.634855595445233 -8.96676248450199 3.7245323498771 19.90080565008524" Properties=species:S:1:pos:R:3 unique_starting_index=90 config_type=initial n_minim_iter=15 stress="0.00012405576220840065 0.00020380059478374574 0.0001672980285503281 0.00020380059478374574 3.3895620116384966e-05 -0.00025317841972071793 0.0001672980285503281 -0.00025317841972071793 -0.00036285137632891305" pbc="T T T"
Si       7.33699316       3.59505858       7.52253389
Si      -3.63638088       1.82635999       4.75255610
Si       5.90457771       8.30698856       5.11008094
Si      -2.82592043       1.89244227       4.11839712
Si       1.85343236       7.00560650      16.42250322
Si     -13.59220402       8.27552360      22.43297139
Si      -2.90606810       2.47224863       5.09654017
Si       1.81669877       8.46624134      15.03535039
Si     -13.95268762       9.94625859      21.93859091
Si       6.40404566       5.67933707       6.05896413
Si       1.10981263       5.65243799       2.97679054
Si       5.95007628       7.81846426       4.31627546
Si       4.70465396       9.48753853       2.60670065
Si       3.52003321       5.69564898      10.67551306
Si      -4.10833781       4.11481925       3.45654638
Si     -14.70425301       9.97364451      22.62520574
Si      -3.94407082       2.26925621       5.59834742
Si       1.65890778       8.92086147      15.84611906
Si      -3.27665885       6.64285918      15.26444853
Si      -8.46898501       5.09093682      14.53248591
Si       1.01084873      10.53272073      13.46192552
Si      11.55981389       2.18335819      -2.67367404
Si       7.38454595       5.86608024       5.62658841
Si       0.56634097       6.65036972       4.76828913
24
Lattice="15.587186809259476 1.2502702676709847 -7.989336377199981 -7.0849427127210305 6.977471996939831 6.635750259096767 -9.007694743855913 3.717194100005707 19.889844379252047" Properties=species:S:1:pos:R:3 unique_starting_index=90 config_type=initial n_minim_iter=16 stress="-0.0006097933033976723 -5.65307573200626e-05 0.00017307306922057837 -5.65307573200626e-05 0.0003571684911195671 2.2996340816590053e-05 0.00017307306922057837 2.2996340816590053e-05 0.0008881359193598769" pbc="T T T"
Si       7.31988572       3.59067912       7.49291010
Si      -3.64646230       1.82650894       4.75290348
Si       5.89124287       8.30654237       5.08812557
Si      -2.83679095       1.89115959       4.11853367
Si       1.81873199       6.99993297      16.39072442
Si     -13.64086869       8.27273602      22.42519739
Si      -2.91488149       2.46966236       5.09692968
Si       1.78241088       8.46219983      15.00518048
Si     -14.00061181       9.94117465      21.93436408
Si       6.38870483       5.67726564       6.03260978
Si       1.09341102       5.66945938       2.95206879
Si       5.93969099       7.81919987       4.29111387
Si       4.69352214       9.49285935       2.58536468
Si       3.50146641       5.69673674      10.64370827
Si      -4.11678082       4.11491572       3.45917114
Si     -14.75247195       9.96984023      22.62170106
Si      -3.95208115       2.26717478       5.60011218
Si       1.62523055       8.91638916      15.81718324
Si      -3.30790099       6.63335371      15.25590734
Si      -8.49722736       5.08692391      14.52983838
Si       0.97952859      10.53010174      13.43299550
Si      11.56445105       2.18196227      -2.69859640
Si       7.36912731       5.86316462       5.59999304
Si       0.55744379       6.65812038       4.76106880
24
Lattice="15.619753198289912 1.257298351319865 -8.00396461812048 -7.108437199205694 6.972723448215661 6.623955949756058 -9.06130747801313 3.6937029037409577 19.851119566149052" Properties=species:S:1:pos:R:3 unique_starting_index=90 config_type=initial n_minim_iter=17 stress="0.0006157766810981374 -0.00019695027488929477 0.00031090663935611347 -0.00019695027488929477 -0.00010429995039199214 -0.0007939371548994126 0.00031090663935611347 -0.0007939371548994126 0.00022407840130686727" pbc="T T T"
Si       7.30950944       3.57953992       7.44951373
Si      -3.66049855       1.82108895       4.74696136
Si       5.88312791       8.29903816       5.05132696
Si      -2.85109218       1.88604108       4.11217243
Si       1.78296711       6.97972328      16.33159039
Si     -13.70741065       8.24900225      22.38384172
Si      -2.92691070       2.46208002       5.08972226
Si       1.74722638       8.44386316      14.94812230
Si     -14.06695005       9.91548029      21.89622333
Si       6.37940025       5.66860545       5.99294252
Si       1.07665159       5.68362540       2.91784915
Si       5.93409363       7.81428462       4.25386235
Si       4.68717975       9.49188556       2.55282531
Si       3.48574529       5.68815381      10.59213150
Si      -4.12928157       4.11079536       3.45515105
Si     -14.81987766       9.94455115      22.58421630
Si      -3.96485594       2.25974540       5.59414469
Si       1.59015878       8.89669749      15.75940573
Si      -3.34480298       6.60915786      15.22380033
Si      -8.53653079       5.06929606      14.50565827
Si       0.94730654      10.51344143      13.37774768
Si      11.58253025       2.18092107      -2.72381845
Si       7.36084927       5.85315815       5.56080816
Si       0.54891354       6.65994551       4.74269139
24
Lattice="15.641343240023712 1.2661011103982416 -8.031472695969361 -7.130687486300613 6.978740521848046 6.615795537183634 -9.127957737419587 3.676669625516216 19.807181439936457" Properties=species:S:1:pos:R:3 unique_starting_index=90 config_type=initial n_minim_iter=18 stress="0.0002735255255136269 -0.0005925837964732623 0.0007234921100492257 -0.0005925837964732623 0.0012006319199472854 -0.0012122341593530095 0.0007234921100492257 -0.0012122341593530095 0.0008546157612838385" pbc="T T T"
Si       7.28044853       3.57374984       7.38963183
Si      -3.67510065       1.81736650       4.74267045
Si       5.86201244       8.30213986       5.00475290
Si      -2.86738185       1.88343769       4.10541613
Si       1.72333796       6.97200950      16.25618145
Si     -13.78435801       8.23717875      22.34145192
Si      -2.93996997       2.45809515       5.08453499
Si       1.68931914       8.43833805      14.87500707
Si     -14.14381048       9.90559779      21.85972530
Si       6.35414142       5.66933796       5.93968086
Si       1.04852350       5.71667134       2.87121486
Si       5.91513412       7.82051731       4.20612346
Si       4.67014917       9.50507843       2.51078230
Si       3.45542897       5.69180410      10.52287445
Si      -4.13935470       4.11275760       3.45532029
Si     -14.89556208       9.93425560      22.54962967
Si      -3.97788784       2.25617594       5.59090610
Si       1.53352164       8.88953515      15.68737960
Si      -3.39544006       6.59193343      15.18965939
Si      -8.58201107       5.05845769      14.48105913
Si       0.89527752      10.51366862      13.30839810
Si      11.58744443       2.18291761      -2.76474846
Si       7.33429011       5.85126483       5.50816569
Si       0.53562975       6.67558211       4.72194726
24
Lattice="15.675678784614357 1.2734006392271353 -8.059651908689595 -7.1604947376257115 6.980351773144562 6.6053345191191735 -9.20467569230257 3.6539104631654196 19.759297006823616" Properties=species:S:1:pos:R:3 unique_starting_index=90 config_type=initial n_minim_iter=19 stress="0.0007472275779329198 -0.001167592980476107 0.0011073893065513807 -0.001167592980476107 0.0020780336005543506 -0.0018944014671315702 0.0011073893065513807 -0.0018944014671315702 0.0012089418852723147" pbc="T T T"
Si       7.25489920       3.56327290       7.32566953
Si      -3.69407020       1.81376651       4.73625666
Si       5.84301776       8.29924685       4.95390128
Si      -2.88560084       1.87821572       4.09707427
Si       1.66145808       6.95416456      16.17625914
Si     -13.87507175       8.21544177      22.29449248
Si      -2.95654977       2.45110298       5.07897762
Si       1.63095861       8.42336159      14.79666966
Si     -14.23616591       9.88710413      21.81880319
Si       6.33172412       5.66441264       5.88341545
Si       1.01938439       5.74585745       2.82314008
Si       5.89803339       7.82067715       4.15450629
Si       4.65472896       9.51180840       2.46434997
Si       3.42556160       5.68882946      10.44942714
Si      -4.15529441       4.11114690       3.45521030
Si     -14.98594718       9.91428283      22.50914024
Si      -3.99587344       2.25110952       5.58586956
Si       1.47656682       8.87299729      15.60924488
Si      -3.45183925       6.56741907      15.15108027
Si      -8.63736966       5.04189139      14.45273546
Si       0.83945402      10.50477710      13.23362206
Si      11.60108959       2.18176649      -2.80620977
Si       7.31188093       5.84424698       5.45089777
Si       0.52117634       6.68594494       4.69744072
24
Lattice="15.713370412546972 1.2829886083558368 -8.092346954996092 -7.192308134318065 6.981009331298135 6.595542614109852 -9.287440251012839 3.627472578954408 19.713029977063655" Properties=species:S:1:pos:R:3 unique_starting_index=90 config_type=initial n_minim_iter=20 stress="0.0011426642143741522 -0.0018492354155718448 0.0014347528363647427 -0.0018492354155718448 0.003313282503843285 -0.0026298854824750484 0.0014347528363647427 -0.0026298854824750484 0.0017696022643500654" pbc="T T T"
Si       7.22952868       3.55064487       7.25942098
Si      -3.71362916       1.80835108       4.73051302
Si       5.82317803       8.29755951       4.90056812
Si      -2.90501505       1.87126316       4.08981537
Si       1.59539354       6.93520066      16.09332862
Si     -13.97342192       8.19008468      22.24980383
Si      -2.97505529       2.44184960       5.07440087
Si       1.56819511       8.40613989      14.71580548
Si     -14.33443359       9.86435048      21.78023207
Si       6.30753622       5.65920025       5.82433671
Si       0.98926991       5.77532019       2.77449070
Si       5.88058667       7.82086052       4.09895630
Si       4.63974865       9.51924170       2.41470641
Si       3.39326848       5.68471023      10.37382294
Si      -4.17243679       4.11085356       3.45431420
Si     -15.08232539       9.88957362      22.46990210
Si      -4.01558439       2.24425412       5.58106087
Si       1.41467912       8.85490318      15.52958138
Si      -3.51247171       6.54048484      15.11212107
Si      -8.69757683       5.02328139      14.42569395
Si       0.78060138      10.49364882      13.15788927
Si      11.61596381       2.18302379      -2.85067976
Si       7.28878537       5.83820382       5.38926878
Si       0.50593876       6.69600348       4.67055802
24
Lattice="15.755027625675355 1.2979622624861094 -8.126050595142019 -7.224633850909498 6.980116628834869 6.58412102631441 -9.374404630183252 3.596298939687989 19.662214371705563" Properties=species:S:1:pos:R:3 unique_starting_index=90 config_type=initial n_minim_iter=21 stress="0.0019556648443413093 -0.002563609985601749 0.0017109844349486487 -0.002563609985601749 0.005017124295048167 -0.003573899085251533 0.0017109844349486487 -0.003573899085251533 0.0020768154967443254" pbc="T T T"
Si       7.20410443       3.53918786       7.18899848
Si      -3.73403276       1.80149351       4.72318342
Si       5.80559364       8.29708373       4.84392763
Si      -2.92602773       1.86374898       4.08225550
Si       1.52890934       6.91536925      16.00349308
Si     -14.07606015       8.15902776      22.20003165
Si      -2.99508213       2.43157865       5.06823961
Si       1.50425183       8.38927298      14.62885551
Si     -14.43546884       9.83719845      21.73535808
Si       6.28431121       5.65519196       5.76111800
Si       0.95961375       5.80584479       2.72466352
Si       5.86454131       7.82396599       4.03987021
Si       4.62735028       9.52910910       2.36154861
Si       3.36084354       5.68091196      10.29350837
Si      -4.18834452       4.10667141       3.45401430
Si     -15.18346988       9.86115177      22.42445370
Si      -4.03634980       2.23521639       5.57449076
Si       1.35179535       8.83667420      15.44398457
Si      -3.57487926       6.51136552      15.06839915
Si      -8.76040679       5.00137018      14.39571631
Si       0.72229720      10.48267577      13.07659168
Si      11.63362886       2.18876647      -2.89629645
Si       7.26714183       5.83368629       5.32390069
Si       0.49170941       6.70669265       4.64013222
