8
Lattice="7.8201357085648855 -1.305217638999118e-15 -4.4366129416639416e-48 -3.9100678542824414 6.772436184659013 1.6147281055425665e-48 2.2372498626999602e-48 7.739927009007401e-49 3.7379752348963073" Properties=species:S:1:pos:R:3 unique_starting_index=80 config_type=initial n_minim_iter=8 energy=-1301.1947561363636 free_energy=-1301.1947561363636 pbc="T T T"
Si       3.90949487       4.51607339       2.53877228
Si       1.95435361       1.12966938       2.53877228
Si       5.86463614       1.12966938       2.53877228
Si       1.95456829       5.64475078       2.53877228
Si      -0.00057298       2.25834677       2.53877228
Si      -1.95571425       5.64475078       2.53877228
Si       3.90949487       2.25847071       2.53797811
Si      -0.00057298       4.51594944       2.53797811
