22
Lattice="4.675895791773717 0.5323582121291486 2.5098233667602274 2.746785386911694 6.63478075201681 2.0985877223231775 8.43047928003032 0.48196980625494934 32.98997633409684" Properties=species:S:1:pos:R:3 unique_starting_index=40 config_type=initial n_minim_iter=1 energy=-4075.840251357034 free_energy=-4075.840251357034 pbc="T T T"
Si      12.66079140       4.09530761      32.93637585
Si       4.25603216       2.86687447      10.45994946
Si       8.16694159       1.07611531      17.85119215
Si       8.33082649       2.81853055      29.94150154
Si      10.33181092       3.63895743      31.70514305
Si       8.84506755       6.50685354      18.39246555
Si       4.83974247       2.46535848       9.44869484
Si       8.39585656       6.34058693      19.26345928
Si       3.78003848       2.56809075       1.00703957
Si      12.24460664       3.97543388      33.73758561
Si       8.63560730       1.85627480      24.77098172
Si       7.19818548       4.71845276      24.20673266
Si       1.52875841       2.81853306      -0.51871503
Si       5.48213956       0.68764435      17.26836425
Si      10.34846733       2.74786473      31.86338597
Si      11.08818555       6.75006676      19.82802697
Si       6.97051578       3.71629895      10.87993440
Si       8.67849908       7.47527782      18.49475672
Si       4.61287060       3.66219953       9.61274946
Si       7.87165800       0.43280321      18.53760183
Si      12.64576619       2.96493672      33.20272407
Si       6.84496269       2.73694319      11.32649357
22
Lattice="4.676139477176286 0.5323507545951145 2.5099680610767545 2.746918432268953 6.634906893796553 2.0986810624682577 8.431910856564663 0.48200542965834253 32.99002071387524" Properties=species:S:1:pos:R:3 unique_starting_index=40 config_type=initial n_minim_iter=2 stress="0.0032515959992183503 0.0005830753339577421 0.0012620326325317715 0.0005830753339577421 -0.0003814988388871884 0.0001833397234776071 0.0012620326325317715 0.0001833397234776071 0.0014579212912626104" pbc="T T T"
Si      12.66234489       4.09538742      32.93656198
Si       4.25652036       2.86694004      10.46001197
Si       8.16781768       1.07611891      17.85134701
Si       8.33212621       2.81862685      29.94157628
Si      10.33325682       3.63903173      31.70526625
Si       8.84597419       6.50697129      18.39263505
Si       4.84022388       2.46540995       9.44880159
Si       8.39678440       6.34072122      19.26362191
Si       3.78018979       2.56812507       1.00717953
Si      12.24617001       3.97552655      33.73777024
Si       8.63675204       1.85631468      24.77109513
Si       7.19924926       4.71856663      24.20681221
Si       1.52877205       2.81859089      -0.51866021
Si       5.48292408       0.68766284      17.26841913
Si      10.34991800       2.74792835      31.86351810
Si      11.08920401       6.75020183      19.82828892
Si       6.97110686       3.71636581      10.88011299
Si       8.67941331       7.47542117      18.49493999
Si       4.61336600       3.66226619       9.61284252
Si       7.87257618       0.43280955      18.53770397
Si      12.64734930       2.96500659      33.20292154
Si       6.84556704       2.73698621      11.32666666
22
Lattice="4.67594203204683 0.5317114834039622 2.510111161671453 2.745857922919601 6.6366590031929364 2.098498829300818 8.4380850305656 0.4805149425490453 32.97992912624967" Properties=species:S:1:pos:R:3 unique_starting_index=40 config_type=initial n_minim_iter=3 stress="-0.0006976413521467591 -0.0008631904288792278 0.0009956623625876253 -0.0008631904288792278 0.0007240318317617579 -0.00020558125804602211 0.0009956623625876253 -0.00020558125804602211 -0.0017299519159646904" pbc="T T T"
Si      12.66724151       4.09423246      32.92718123
Si       4.25767301       2.86723781      10.45692407
Si       8.17018239       1.07470174      17.84676999
Si       8.33702334       2.81831221      29.93266782
Si      10.33851436       3.63802726      31.69598620
Si       8.84772355       6.50737065      18.38768004
Si       4.84125318       2.46546269       9.44653884
Si       8.39892437       6.34143448      19.25854024
Si       3.77944108       2.56831572       1.00785460
Si      12.25124499       3.97461162      33.72836267
Si       8.64077865       1.85519380      24.76397050
Si       7.20290021       4.71883844      24.19966132
Si       1.52783731       2.81944928      -0.51829376
Si       5.48594532       0.68677245      17.26325388
Si      10.35525092       2.74676363      31.85440386
Si      11.09066966       6.75067402      19.82378096
Si       6.97182093       3.71641745      10.87791793
Si       8.68131749       7.47625561      18.49024634
Si       4.61467366       3.66255674       9.61032810
Si       7.87571425       0.43146540      18.53214236
Si      12.65278133       2.96371029      33.19374810
Si       6.84651304       2.73662908      11.32436467
22
Lattice="4.675873402645809 0.5327223385800031 2.5099814480014158 2.7467618892410495 6.637643927245637 2.099094445712392 8.432052705679322 0.48445443420956 32.988590562000105" Properties=species:S:1:pos:R:3 unique_starting_index=40 config_type=initial n_minim_iter=4 stress="-2.8849111372928906e-05 0.0002807560282330137 -0.00033816881815758635 0.0002807560282330137 0.0005434715096326147 -0.0001346723187537436 -0.00033816881815758635 -0.0001346723187537436 0.0001556781949403905" pbc="T T T"
Si      12.66222421       4.09891969      32.93490668
Si       4.25614178       2.86913387      10.45918830
Si       8.16702633       1.07720608      17.85089000
Si       8.33179003       2.82272539      29.94066285
Si      10.33373972       3.64189563      31.70390157
Si       8.84567902       6.51041581      18.39168215
Si       4.84012356       2.46731610       9.44883815
Si       8.39666447       6.34489143      19.26343839
Si       3.77985392       2.56921351       1.00791413
Si      12.24574800       3.97947632      33.73701340
Si       8.63666269       1.85842575      24.76997526
Si       7.19932297       4.72226025      24.20621778
Si       1.52841819       2.82009167      -0.51866466
Si       5.48289264       0.68885051      17.26744596
Si      10.35001619       2.75088363      31.86270897
Si      11.08828887       6.75469335      19.82846553
Si       6.97060344       3.71870446      10.88057254
Si       8.67982972       7.47931075      18.49489310
Si       4.61439916       3.66411377       9.61258113
Si       7.87277038       0.43415354      18.53565674
Si      12.64772505       2.96858542      33.20187317
Si       6.84488812       2.73875504      11.32719103
22
Lattice="4.675700885429107 0.5322514325545081 2.5106017192409373 2.745773141654867 6.634639038643098 2.1006588687140555 8.434185547035218 0.4890755000401236 32.99111996786312" Properties=species:S:1:pos:R:3 unique_starting_index=40 config_type=initial n_minim_iter=5 stress="-0.0004393287694562272 -0.00032202382141981287 0.0005086730493705133 -0.00032202382141981287 -0.002970396145406254 -0.0002802633514323142 0.0005086730493705133 -0.0002802633514323142 -3.731621550935764e-05" pbc="T T T"
Si      12.66344011       4.10133160      32.93871633
Si       4.25598025       2.86957067      10.46007058
Si       8.16782716       1.07894879      17.85281611
Si       8.33331537       2.82640100      29.94349537
Si      10.33527348       3.64383737      31.70655892
Si       8.84552684       6.50930030      18.39408434
Si       4.84025190       2.46751878       9.45045265
Si       8.39667359       6.34468264      19.26618219
Si       3.77924891       2.56778769       1.00889305
Si      12.24705420       3.98211328      33.74051356
Si       8.63785971       1.86052583      24.77211272
Si       7.20023263       4.72375810      24.20910659
Si       1.52811652       2.81898765      -0.51814947
Si       5.48357984       0.69063419      17.26849815
Si      10.35157593       2.75367043      31.86630845
Si      11.08823455       6.75371855      19.83166371
Si       6.97034548       3.71807057      10.88317641
Si       8.67968859       7.47752749      18.49777942
Si       4.61546864       3.66333151       9.61390170
Si       7.87393188       0.43600187      18.53703503
Si      12.64934241       2.97159385      33.20552820
Si       6.84452790       2.73861204      11.32963798
22
Lattice="4.675594582847755 0.5330811744262055 2.5104704743475437 2.7450713229645767 6.639149433266425 2.102977048399489 8.431128926625675 0.5009040292587607 32.99238276060541" Properties=species:S:1:pos:R:3 unique_starting_index=40 config_type=initial n_minim_iter=6 stress="3.10668149836754e-05 -0.00021541480786585728 -0.00025556241340825135 -0.00021541480786585728 0.0008326626647227276 0.0003498451304568877 -0.00025556241340825135 0.0003498451304568877 4.1676255208714994e-06" pbc="T T T"
Si      12.66007502       4.11513748      32.94147435
Si       4.25431086       2.87549562      10.46051074
Si       8.16628735       1.08592865      17.85345762
Si       8.33045360       2.83938237      29.94549906
Si      10.33244634       3.65599319      31.70787695
Si       8.84333424       6.51875832      18.39602729
Si       4.83929627       2.47248169       9.45185433
Si       8.39431967       6.35529534      19.26850880
Si       3.77897507       2.56942411       1.00964516
Si      12.24365532       3.99604180      33.74262840
Si       8.63546925       1.86951763      24.77301566
Si       7.19773387       4.73532154      24.21178391
Si       1.52829548       2.82112895      -0.51743918
Si       5.48156986       0.69670553      17.26858334
Si      10.34837120       2.76563034      31.86909188
Si      11.08611261       6.76408361      19.83397225
Si       6.96900953       3.72385596      10.88572872
Si       8.67743089       7.48731986      18.50044508
Si       4.61605231       3.66839614       9.61491146
Si       7.87239689       0.44202948      18.53716570
Si      12.64624959       2.98469029      33.20772964
Si       6.84268266       2.74385700      11.33185492
22
Lattice="4.675279583037475 0.5337232868920996 2.5109914161523497 2.7457069186281697 6.638738412969479 2.103668376559556 8.43369193460677 0.5038992907911148 32.99288511744974" Properties=species:S:1:pos:R:3 unique_starting_index=40 config_type=initial n_minim_iter=7 stress="4.443242929561244e-06 0.0008628575849926496 -5.082768366532717e-06 0.0008628575849926496 -9.491059595922377e-05 0.00011217173030730987 -5.082768366532717e-06 0.00011217173030730987 -0.0009304313235873358" pbc="T T T"
Si      12.66216474       4.11856733      32.94332880
Si       4.25449784       2.87749655      10.46006550
Si       8.16668197       1.08841781      17.85333687
Si       8.33306527       2.84295134      29.94657126
Si      10.33637664       3.65778989      31.70774766
Si       8.84549684       6.51931957      18.39678792
Si       4.83996580       2.47378855       9.45322453
Si       8.39617265       6.35687637      19.26893494
Si       3.77905305       2.56965559       1.01029625
Si      12.24623438       3.99901097      33.74391680
Si       8.63710255       1.87085276      24.77318949
Si       7.20017296       4.73770402      24.21289415
Si       1.52821182       2.82207662      -0.51775533
Si       5.48272121       0.69838051      17.26849819
Si      10.35001199       2.76756786      31.87191174
Si      11.08727422       6.76570469      19.83428099
Si       6.96967684       3.72506772      10.88873383
Si       8.67919138       7.48735114      18.50101492
Si       4.61932592       3.66882783       9.61446350
Si       7.87259298       0.44302460      18.53745798
Si      12.64850720       2.98803680      33.20906319
Si       6.84217121       2.74502962      11.33455119
22
Lattice="4.674773304625105 0.5319897805455172 2.5121805984910965 2.7431435776749433 6.6379330129490715 2.1044724997845146 8.43388576912953 0.5000572997650814 33.00693646295" Properties=species:S:1:pos:R:3 unique_starting_index=40 config_type=initial n_minim_iter=8 stress="-0.00012112741632517848 -0.0011169025380105189 -6.300446325295433e-05 -0.0011169025380105189 0.0004072718094659141 -0.0006771580719599162 -6.300446325295433e-05 -0.0006771580719599162 0.001563744284569052" pbc="T T T"
Si      12.66067153       4.11358419      32.95754391
Si       4.25318795       2.87645093      10.46431408
Si       8.16595684       1.08501393      17.86068319
Si       8.33241225       2.83957452      29.95961357
Si      10.33575333       3.65304082      31.72075151
Si       8.84320387       6.51542312      18.40439410
Si       4.83898342       2.47196168       9.45770564
Si       8.39368612       6.35346199      19.27669080
Si       3.77787948       2.56827943       1.01083686
Si      12.24477027       3.99377504      33.75858174
Si       8.63642761       1.86670080      24.78353240
Si       7.19874641       4.73499262      24.22328348
Si       1.52696949       2.82245033      -0.51815506
Si       5.48240147       0.69620027      17.27568871
Si      10.34884240       2.76279856      31.88642358
Si      11.08465164       6.76162612      19.84234587
Si       6.96816698       3.72248403      10.89440945
Si       8.67621249       7.48361187      18.50839534
Si       4.61885363       3.66709612       9.61793316
Si       7.87219909       0.43930903      18.54527713
Si      12.64757784       2.98279343      33.22308940
Si       6.84049517       2.74238438      11.34026752
22
Lattice="4.674477895943542 0.5326801986042747 2.5126314187580325 2.7426275769560413 6.637669878346238 2.107368433270042 8.436636977916415 0.5135682160176243 33.00401110211169" Properties=species:S:1:pos:R:3 unique_starting_index=40 config_type=initial n_minim_iter=9 stress="0.0005416331352384303 -0.000244736370943374 -0.00028312408959763627 -0.000244736370943374 -0.00017721941068030202 0.0008197143316407884 -0.00028312408959763627 0.0008197143316407884 -0.0004338071689858235" pbc="T T T"
Si      12.66306750       4.12696390      32.95707822
Si       4.25319021       2.88198814      10.46460862
Si       8.16669295       1.09140440      17.85924734
Si       8.33506935       2.85189997      29.95907707
Si      10.33922171       3.66445423      31.71845396
Si       8.84414355       6.52045237      18.40531985
Si       4.83935338       2.47528149       9.45936665
Si       8.39374743       6.35967675      19.27663944
Si       3.77721555       2.56765953       1.01207186
Si      12.24666860       4.00642460      33.75825335
Si       8.63785405       1.87521228      24.78167611
Si       7.20061858       4.74501870      24.22350109
Si       1.52644872       2.82412897      -0.51703173
Si       5.48312142       0.70378482      17.27392787
Si      10.35005041       2.77476969      31.88708546
Si      11.08561741       6.76908621      19.84314030
Si       6.96862946       3.72628311      10.89790781
Si       8.67647693       7.48895669      18.50914956
Si       4.62127442       3.67069406       9.61719282
Si       7.87315211       0.44566288      18.54335017
Si      12.64989753       2.99578529      33.22100655
Si       6.83963697       2.74641171      11.34273396
22
Lattice="4.673069657197771 0.5326507087499666 2.5152304002051062 2.743456879664315 6.637953095195577 2.106317321998445 8.445663040080689 0.5008366026855244 33.01932168092375" Properties=species:S:1:pos:R:3 unique_starting_index=40 config_type=initial n_minim_iter=10 stress="-0.0011034283217252203 0.0008568122169328855 0.000952533566162859 0.0008568122169328855 0.0004979143629238415 -3.1570868270083196e-05 0.000952533566162859 -3.1570868270083196e-05 0.0010415142068587301" pbc="T T T"
Si      12.67100245       4.11620413      32.97298418
Si       4.25559350       2.88042935      10.46939828
Si       8.16963560       1.08476783      17.86827761
Si       8.34405173       2.84127769      29.97256229
Si      10.34832698       3.65205636      31.73154476
Si       8.84842197       6.51381629      18.41203508
Si       4.84112264       2.47199750       9.46513015
Si       8.39772566       6.35330989      19.28335897
Si       3.77601928       2.56737721       1.01224644
Si      12.25449840       3.99419568      33.77427338
Si       8.64336331       1.86509788      24.79303953
Si       7.20792473       4.73709927      24.23350669
Si       1.52598545       2.82751494      -0.51785073
Si       5.48681330       0.69771032      17.28151981
Si      10.35719286       2.76296969      31.90391807
Si      11.08927585       6.76374937      19.85087474
Si       6.97028796       3.72349972      10.90502080
Si       8.68104355       7.48258586      18.51524084
Si       4.62511350       3.66842188       9.61938873
Si       7.87628218       0.43820581      18.55209411
Si      12.65719283       2.98386780      33.23745444
Si       6.84029621       2.74306961      11.35001899
22
Lattice="4.673659599091605 0.530893491387014 2.514479681219347 2.7426034123820084 6.635934879312405 2.1037081264572737 8.445070476486901 0.4882871905484723 33.014863962383885" Properties=species:S:1:pos:R:3 unique_starting_index=40 config_type=initial n_minim_iter=11 stress="0.0017746083694341755 -0.00014769942276346838 -0.0007257250724271285 -0.00014769942276346838 -0.00012659877438802314 -0.001318955067538185 -0.0007257250724271285 -0.001318955067538185 -0.0009700902436046429" pbc="T T T"
Si      12.67073893       4.10300430      32.96763034
Si       4.25508075       2.87753577      10.46762108
Si       8.16962479       1.07682865      17.86518465
Si       8.34383889       2.82982392      29.96798152
Si      10.34849687       3.63833845      31.72529375
Si       8.84785969       6.50455752      18.40661353
Si       4.84097428       2.46720338       9.46424460
Si       8.39632666       6.34458539      19.27788028
Si       3.77591254       2.56528328       1.01064984
Si      12.25367942       3.97992964      33.76849147
Si       8.64275526       1.85406356      24.78874505
Si       7.20710273       4.72783300      24.22894301
Si       1.52540339       2.82933210      -0.51882529
Si       5.48610022       0.69093795      17.27822838
Si      10.35607063       2.75004497      31.90042284
Si      11.08886714       6.75428272      19.84457161
Si       6.97025968       3.71823607      10.90351627
Si       8.68042395       7.47330045      18.50951998
Si       4.62587568       3.66454059       9.61554370
Si       7.87602574       0.42975902      18.54828940
Si      12.65710253       2.97003326      33.23217301
Si       6.83979565       2.73767504      11.34853841
22
Lattice="4.671286168558753 0.5303185099027001 2.519015518929572 2.7398428717736527 6.634781984338655 2.1087708039457738 8.45682371705219 0.4961553506184491 33.042836166032" Properties=species:S:1:pos:R:3 unique_starting_index=40 config_type=initial n_minim_iter=12 stress="0.0007436124649920938 -0.00015093813343733183 0.00023486915148918506 -0.00015093813343733183 -0.00012507561871374123 0.00080672949055193 0.00023486915148918506 0.00080672949055193 0.000675517638999617" pbc="T T T"
Si      12.67847763       4.11041814      33.00071828
Si       4.25670130       2.88386330      10.48021793
Si       8.17242717       1.07936951      17.88235055
Si       8.35454329       2.83701889      29.99520519
Si      10.35986994       3.64252613      31.75277783
Si       8.84955011       6.50509087      18.42473709
Si       4.84174865       2.46699279       9.47790921
Si       8.39749594       6.34757648      19.29649025
Si       3.77211816       2.56251767       1.01383590
Si      12.26180539       3.98545477      33.80057794
Si       8.64855944       1.85653965      24.81076038
Si       7.21437579       4.73433222      24.25189485
Si       1.52199821       2.83424825      -0.51738543
Si       5.49026645       0.69449255      17.29145297
Si      10.36370185       2.75631844      31.93339873
Si      11.08945695       6.75551954      19.86338945
Si       6.96993293       3.71924531      10.91938423
Si       8.68308750       7.47384539      18.52838041
Si       4.62944518       3.66726257       9.62306950
Si       7.87890533       0.43137563      18.56308601
Si      12.66591616       2.97640528      33.26334205
Si       6.83913126       2.73887942      11.36380219
22
Lattice="4.669824927527461 0.5287856023327082 2.522076789795181 2.7399169334885856 6.634540497442847 2.1055922443968202 8.471028180002515 0.4700862026336286 33.056937960184676" Properties=species:S:1:pos:R:3 unique_starting_index=40 config_type=initial n_minim_iter=13 stress="0.0011365124902465637 0.00026566942648221045 0.0005154132436686826 0.00026566942648221045 0.00021713109451570173 -0.00036879842772318444 0.0005154132436686826 -0.00036879842772318444 0.0005851407094369859" pbc="T T T"
Si      12.69096051       4.08604427      33.01542746
Si       4.26015262       2.88139221      10.48544160
Si       8.17762326       1.06576993      17.89124233
Si       8.36831306       2.81520932      30.00751228
Si      10.37517257       3.61645552      31.76345363
Si       8.85480091       6.49056965      18.42825360
Si       4.84410867       2.45864246       9.48561401
Si       8.40230451       6.33410629      19.29996256
Si       3.76952090       2.56174364       1.01458415
Si      12.27408008       3.95843904      33.81497980
Si       8.65698349       1.83499140      24.82093289
Si       7.22517545       4.71769291      24.25965357
Si       1.52014015       2.83976223      -0.51933307
Si       5.49571309       0.68055158      17.29646134
Si      10.37443876       2.73095139      31.95096638
Si      11.09557396       6.74029053      19.86733862
Si       6.97212890       3.71183791      10.92591517
Si       8.68984330       7.45930645      18.53132969
Si       4.63485919       3.66167891       9.62342546
Si       7.88423855       0.41492518      18.57041027
Si      12.67864024       2.95182653      33.27710491
Si       6.84179936       2.73076278      11.37112659
22
Lattice="4.667870302099529 0.5271270545608958 2.526094304293164 2.737261367652502 6.635069683911623 2.107263079728806 8.483795248016625 0.4622442854541977 33.08073929189615" Properties=species:S:1:pos:R:3 unique_starting_index=40 config_type=initial n_minim_iter=14 stress="0.0016403074972716023 2.0690230610587788e-07 0.0005879425039511819 2.0690230610587788e-07 0.0005600470055195599 2.42845025067994e-05 0.0005879425039511819 2.42845025067994e-05 0.0009354252706512455" pbc="T T T"
Si      12.70101917       4.07931037      33.04328922
Si       4.26124365       2.88775548      10.49623026
Si       8.18012504       1.05940542      17.90502677
Si       8.38135071       2.81081931      30.02978105
Si      10.38762168       3.60557677      31.78461674
Si       8.85745129       6.48429286      18.44114030
Si       4.84444207       2.45406329       9.50040678
Si       8.40363450       6.32950811      19.31212065
Si       3.76526071       2.56124329       1.01716434
Si      12.28311968       3.94819201      33.84220087
Si       8.66321235       1.82532383      24.83908109
Si       7.23353662       4.71488519      24.27730040
Si       1.51829403       2.84553087      -0.51977633
Si       5.50042195       0.67613993      17.30633446
Si      10.38212408       2.72150411      31.98063156
Si      11.09761201       6.73446995      19.87978472
Si       6.97247147       3.70903156      10.93801008
Si       8.69315921       7.45365898      18.54300773
Si       4.63886352       3.66003512       9.62929899
Si       7.88787128       0.40673445      18.58120193
Si      12.68769062       2.94522448      33.30280653
Si       6.84436367       2.72814264      11.38353169
22
Lattice="4.666055049617488 0.5262674426445249 2.5296551258076363 2.7357283009370628 6.6351966078561855 2.1088106555352475 8.493688056060577 0.45652746163136226 33.10406337176509" Properties=species:S:1:pos:R:3 unique_starting_index=40 config_type=initial n_minim_iter=15 stress="0.0020170439454115377 -0.0002312464939026737 0.0006275349430091962 -0.0002312464939026737 0.0007507996957575284 0.00011714917566255246 0.0006275349430091962 0.00011714917566255246 0.0013316679735320429" pbc="T T T"
Si      12.70761947       4.07501798      33.07013935
Si       4.26167568       2.89513670      10.50671763
Si       8.18258518       1.05431536      17.91808154
Si       8.39140490       2.80785893      30.05125595
Si      10.39953890       3.59653434      31.80620744
Si       8.85959588       6.47911787      18.45333608
Si       4.84446197       2.45034479       9.51552257
Si       8.40441901       6.32539310      19.32365957
Si       3.76240955       2.56020795       1.01957193
Si      12.29034618       3.94184376      33.86825499
Si       8.66768747       1.81754763      24.85668705
Si       7.24065384       4.71302759      24.29442599
Si       1.51572405       2.85091800      -0.52054450
Si       5.50344835       0.67287545      17.31575446
Si      10.38859481       2.71403250      32.00875625
Si      11.09952825       6.73110521      19.89170866
Si       6.97332654       3.70742041      10.94936036
Si       8.69532471       7.44874215      18.55315846
Si       4.64262600       3.65794302       9.63553729
Si       7.89076909       0.40012649      18.59201178
Si      12.69457771       2.94126230      33.32866786
Si       6.84670996       2.72684561      11.39472005
22
Lattice="4.664446880996622 0.5272252930980488 2.5323712310231814 2.737247015417529 6.636595526219334 2.1087276785462783 8.502888144713658 0.4496558810189412 33.11886431615656" Properties=species:S:1:pos:R:3 unique_starting_index=40 config_type=initial n_minim_iter=16 stress="0.0019679760566452377 -0.00011922836396231221 0.0006149766618476268 -0.00011922836396231221 0.0011387878985015135 -0.00015464918108228673 0.0006149766618476268 -0.00015464918108228673 0.0013688029209730052" pbc="T T T"
Si      12.71586874       4.07150278      33.08745843
Si       4.26285335       2.90363166      10.51441463
Si       8.18471526       1.05090911      17.92510729
Si       8.40132117       2.80365133      30.06614643
Si      10.40996117       3.58753528      31.81814792
Si       8.86416816       6.47550445      18.45955029
Si       4.84549401       2.44752226       9.52884738
Si       8.40826284       6.32245417      19.32941402
Si       3.76084250       2.55975240       1.02158570
Si      12.29804705       3.93754545      33.88517056
Si       8.67228445       1.81001514      24.86756669
Si       7.24939217       4.71083744      24.30442043
Si       1.51507992       2.85739972      -0.52113725
Si       5.50675414       0.66897697      17.32010295
Si      10.39577844       2.70703715      32.02775650
Si      11.10375972       6.73024285      19.89670598
Si       6.97642331       3.70828209      10.95735401
Si       8.70061529       7.44513018      18.55719778
Si       4.64814895       3.65575094       9.63897140
Si       7.89276304       0.39374144      18.59850183
Si      12.70379480       2.93860196      33.34520554
Si       6.84937756       2.72735969      11.40181484
22
Lattice="4.663622888005077 0.5286402080480045 2.533546536757194 2.7387038198638955 6.637847364627265 2.1095693746357354 8.506532690237604 0.4525169253929587 33.12442007893445" Properties=species:S:1:pos:R:3 unique_starting_index=40 config_type=initial n_minim_iter=17 stress="0.0017472207461959686 -0.00013699715263923396 0.000485096556205195 -0.00013699715263923396 0.0012657171935462393 -0.00010399994732908239 0.000485096556205195 -0.00010399994732908239 0.0012707346546008606" pbc="T T T"
Si      12.71884684       4.07657282      33.09421250
Si       4.26305947       2.91116821      10.51882390
Si       8.18458256       1.05314388      17.92722291
Si       8.40541725       2.80689249      30.07219150
Si      10.41518890       3.58971390      31.82319444
Si       8.86640385       6.47711167      18.46196368
Si       4.84598673       2.44776019       9.53659933
Si       8.41049312       6.32481684      19.33193143
Si       3.76053940       2.56028354       1.02246707
Si      12.30043728       3.94168017      33.89257610
Si       8.67388969       1.81086330      24.87163995
Si       7.25370854       4.71444479      24.30864140
Si       1.51605098       2.86121315      -0.52070504
Si       5.50785057       0.66999065      17.32040052
Si      10.39946200       2.71024390      32.03689059
Si      11.10632635       6.73393473      19.89845345
Si       6.97844834       3.71184638      10.96162067
Si       8.70360984       7.44699044      18.55879579
Si       4.65171950       3.65618218       9.64047633
Si       7.89322911       0.39420213      18.60024625
Si      12.70718069       2.94403111      33.35202393
Si       6.85040280       2.73057817      11.40502043
22
Lattice="4.662532158045062 0.5317011630955816 2.534827132551958 2.741535515697025 6.640068816529418 2.1117913972724223 8.509197567960408 0.46422636646314713 33.130728263447516" Properties=species:S:1:pos:R:3 unique_starting_index=40 config_type=initial n_minim_iter=18 stress="0.0011087723513397694 -0.00032346607188263776 0.00020083298514016068 -0.00032346607188263776 0.0012502879430033196 0.00024356001495928653 0.00020083298514016068 0.00024356001495928653 0.0009367342658751164" pbc="T T T"
Si      12.72140318       4.09195680      33.10313678
Si       4.26245157       2.92529208      10.52604216
Si       8.18258513       1.06073126      17.92935337
Si       8.40997601       2.81788193      30.07957859
Si      10.41981770       3.60131071      31.82900112
Si       8.86898722       6.48327113      18.46466976
Si       4.84628795       2.44982505       9.54864474
Si       8.41338971       6.33244719      19.33532722
Si       3.76211852       2.56249120       1.02422170
Si      12.30269953       3.95484627      33.90266744
Si       8.67448292       1.81773457      24.87612082
Si       7.25871691       4.72495146      24.31409411
Si       1.51631639       2.86650262      -0.52053030
Si       5.50778223       0.67501581      17.31879963
Si      10.40120280       2.72263069      32.04850447
Si      11.10988420       6.74392878      19.90053043
Si       6.98134469       3.72075689      10.96805812
Si       8.70713835       7.45391838      18.56035899
Si       4.65761958       3.65863624       9.64215368
Si       7.89320444       0.39964607      18.60070983
Si      12.71078164       2.95964971      33.36147813
Si       6.85133121       2.73880909      11.40953461
22
Lattice="4.661696179960695 0.5354938757222188 2.5355028439320577 2.7476969739664625 6.641805006019115 2.1096203251377093 8.5111212125339 0.4592373309107159 33.13500472851645" Properties=species:S:1:pos:R:3 unique_starting_index=40 config_type=initial n_minim_iter=19 stress="-1.951295370619269e-05 -6.144975761769508e-05 -0.00010821182741318916 -6.144975761769508e-05 0.0008176871685428822 -0.0002271260930877273 -0.00010821182741318916 -0.0002271260930877273 0.0003612015247501068" pbc="T T T"
Si      12.72427463       4.09178284      33.10920608
Si       4.26229965       2.93633866      10.53250311
Si       8.18030985       1.06014845      17.92988358
Si       8.41531605       2.81414482      30.08397606
Si      10.42536783       3.59828179      31.83082185
Si       8.87521977       6.48126087      18.46186401
Si       4.84689377       2.44668037       9.56065248
Si       8.41937786       6.33071420      19.33290210
Si       3.76449847       2.56590622       1.02613324
Si      12.30661575       3.95311995      33.90657035
Si       8.67510465       1.81256714      24.87770085
Si       7.26564771       4.72307831      24.31491746
Si       1.51881792       2.87295438      -0.52050898
Si       5.50729746       0.67154945      17.31477356
Si      10.40373118       2.72048456      32.05723036
Si      11.11533657       6.74642176      19.89602458
Si       6.98537162       3.72761487      10.97254028
Si       8.71290976       7.45228258      18.55369383
Si       4.66704390       3.65659063       9.63946255
Si       7.89304832       0.39677770      18.59768585
Si      12.71478446       2.96013330      33.36563534
Si       6.85419515       2.74452786      11.41336541
22
Lattice="4.660878316085235 0.5402325735363489 2.535832618876885 2.7547590597434484 6.6455236672441735 2.1075821534788868 8.518570398187892 0.45883533647869923 33.123709344636474" Properties=species:S:1:pos:R:3 unique_starting_index=40 config_type=initial n_minim_iter=20 stress="-0.0016327451517838426 -7.361983299140428e-05 -0.0007089730360474363 -7.361983299140428e-05 0.00017219026230318665 -0.0002618136308757709 -0.0007089730360474363 -0.0002618136308757709 -0.0005736073969322909" pbc="T T T"
Si      12.73335009       4.09699284      33.10029193
Si       4.26336668       2.95590713      10.53848313
Si       8.17827977       1.06219085      17.91982360
Si       8.42610006       2.81742296      30.07498306
Si      10.43633564       3.59829327      31.82035686
Si       8.88359114       6.48196761      18.45010007
Si       4.84740045       2.44221139       9.57548496
Si       8.42742800       6.33160939      19.31883692
Si       3.76675857       2.57113630       1.02987495
Si      12.31625721       3.95785257      33.89738202
Si       8.67923995       1.80956549      24.86704949
Si       7.27775590       4.72529001      24.30427267
Si       1.52077256       2.88274792      -0.51883691
Si       5.51034498       0.67033533      17.29990102
Si      10.41234885       2.72486842      32.05194522
Si      11.12583766       6.75234831      19.87965034
Si       6.98978456       3.74015998      10.97638600
Si       8.72187229       7.45337120      18.53623634
Si       4.68236576       3.65537750       9.62979036
Si       7.89499816       0.39411716      18.58504449
Si      12.72452568       2.96621683      33.35749334
Si       6.86084421       2.75665938      11.41698367
22
Lattice="4.659804905590482 0.5460855419722791 2.536287211900994 2.7641504427669106 6.647314057473648 2.104383713296206 8.546050451808098 0.4586974816324654 33.076035919362106" Properties=species:S:1:pos:R:3 unique_starting_index=40 config_type=initial n_minim_iter=21 stress="-0.0036339364116864947 0.00013280299398215942 -0.0013071675846573103 0.00013280299398215942 -0.0023013067697720243 -6.841841299077804e-05 -0.0013071675846573103 -6.841841299077804e-05 -0.0020492813214034664" pbc="T T T"
Si      12.76211099       4.10572864      33.05949298
Si       4.27170313       2.99286937      10.54229642
Si       8.18454495       1.06065730      17.88788889
Si       8.45592132       2.82114195      30.03508091
Si      10.46861546       3.59971925      31.77526680
Si       8.90116170       6.47741655      18.41343573
Si       4.85023242       2.43073019       9.59965400
Si       8.44521073       6.32918645      19.28095678
Si       3.76836764       2.57972262       1.03619037
Si      12.34470290       3.96402185      33.85743705
Si       8.69638197       1.80195158      24.82768884
Si       7.30721509       4.72568603      24.26589409
Si       1.52219700       2.89554605      -0.51082356
Si       5.52161106       0.66648186      17.25862363
Si      10.43997849       2.72475297      32.01817561
Si      11.14651500       6.75727528      19.83385244
Si       6.99786282       3.75895502      10.97986131
Si       8.74242164       7.44843555      18.49181800
Si       4.71207790       3.64888683       9.60370381
Si       7.90510395       0.38515440      18.54700784
Si      12.75530748       2.97472368      33.31844388
Si       6.87526054       2.77680782      11.41888846
