8
Lattice="5.762090000000002 -3.2450675027150306e-16 5.496236244042671e-16 -1.0600401234553327 5.663744000638167 -5.496236244042648e-16 -2.6074139867304598 -2.619017377385193 4.677065331477747" Properties=species:S:1:pos:R:3 unique_starting_index=38 config_type=initial n_minim_iter=1 pbc="T T T"
Si       2.94962687       3.37467305       1.40455218
Si       0.16702332       0.90109835       3.27251315
Si      -0.85499120      -0.32994529       3.27251315
Si       1.92761235       2.14362941       1.40455218
Si       1.54133176       0.13554386       3.56438307
Si       1.94430992       4.58468759       1.11268226
Si       0.55330392       2.90918390       1.11268226
Si       0.15032575      -1.53995983       3.56438307
8
Lattice="5.813091109078823 -0.009459061163842349 0.003125735858698417 -1.0787203111793446 5.712134470278033 -0.0031257358586983803 -2.623656060139407 -2.6384153265950423 4.703023016942408" Properties=species:S:1:pos:R:3 unique_starting_index=38 config_type=initial n_minim_iter=2 pbc="T T T"
Si       2.97171714       3.39706281       1.41235477
Si       0.16872495       0.90753264       3.29066825
Si      -0.86100262      -0.33280158       3.29066825
Si       1.94198957       2.15672859       1.41235477
Si       1.55706817       0.13214997       3.58530689
Si       1.95415781       4.61906452       1.11771612
Si       0.55364635       2.93211126       1.11771612
Si       0.15655671      -1.55480329       3.58530689
8
Lattice="6.512028487094565 -0.14390158337561293 0.05928940551082825 -1.3394503055194076 6.37440942844693 -0.059289405510827724 -2.833238111293813 -2.9102364268202248 5.025912072398335" Properties=species:S:1:pos:R:3 unique_starting_index=38 config_type=initial n_minim_iter=3 pbc="T T T"
Si       3.27484727       3.69768411       1.50951788
Si       0.19886693       0.98897269       3.51639418
Si      -0.93550746      -0.37741141       3.51639418
Si       2.14047287       2.33130001       1.50951788
Si       1.78057940       0.07740622       3.85141059
Si       2.08785474       5.08470123       1.17450146
Si       0.55876040       3.24286648       1.17450146
Si       0.25148506      -1.76442853       3.85141059
8
Lattice="7.173241254386811 -0.1900529874440228 0.204489252424598 -1.5064559929321688 7.0158463903532 -0.2044892524245972 -2.9936095942557914 -3.27988430656271 5.108756819954563" Properties=species:S:1:pos:R:3 unique_starting_index=38 config_type=initial n_minim_iter=4 pbc="T T T"
Si       3.63764806       4.02308154       1.53050160
Si       0.29159526       1.03579619       3.57825517
Si      -0.96447270      -0.47717104       3.57825517
Si       2.38158010       2.51011432       1.53050160
Si       2.04412918      -0.00076218       3.96741208
Si       2.29637129       5.55501006       1.14134470
Si       0.62904619       3.54667268       1.14134470
Si       0.37680407      -2.00909956       3.96741208
8
Lattice="7.002708808623731 0.008613122952776794 0.16427077280880428 -1.2798081575547573 6.88477275762386 -0.16427077280880312 -3.039385652569444 -3.2989707299583015 5.009971394015054" Properties=species:S:1:pos:R:3 unique_starting_index=38 config_type=initial n_minim_iter=5 pbc="T T T"
Si       3.65605493       4.07971247       1.48957127
Si       0.29809733       1.04522071       3.52040009
Si      -0.97254019      -0.48529594       3.52040009
Si       2.38541741       2.54919582       1.48957127
Si       1.96531730       0.07363652       3.88207325
Si       2.39433840       5.53973633       1.12789811
Si       0.71819744       3.52078001       1.12789811
Si       0.28917634      -1.94531980       3.88207325
8
Lattice="7.038187481097935 0.001112012013445871 0.18540105683668148 -1.2937081814055378 6.918265924132922 -0.18540105683667996 -3.0348793585110383 -3.3246652060594712 4.944818343328663" Properties=species:S:1:pos:R:3 unique_starting_index=38 config_type=initial n_minim_iter=6 pbc="T T T"
Si       3.67943864       4.08679793       1.46485106
Si       0.30526630       1.04381434       3.47996725
Si      -0.96983896      -0.49208382       3.47996725
Si       2.40433338       2.55089978       1.46485106
Si       1.98202481       0.05915672       3.84302961
Si       2.40311703       5.55379244       1.10178870
Si       0.72757487       3.53555740       1.10178870
Si       0.30648265      -1.95907832       3.84302961
8
Lattice="7.060403948954534 0.004055272354134183 0.20361287804915137 -1.2949022749085137 6.940644672224864 -0.20361287804915038 -3.031487898361606 -3.348868211668619 4.878572468981874" Properties=species:S:1:pos:R:3 unique_starting_index=38 config_type=initial n_minim_iter=7 pbc="T T T"
Si       3.70159570       4.09494514       1.44024179
Si       0.31258971       1.04288904       3.43833064
Si      -0.96758218      -0.49911201       3.43833064
Si       2.42142380       2.55294408       1.44024179
Si       1.99325303       0.04914821       3.80202530
Si       2.41562754       5.56410678       1.07654713
Si       0.74076049       3.54668492       1.07654713
Si       0.31838598      -1.96827366       3.80202530
8
Lattice="7.184299154959239 0.052153346886628406 0.3614537218549725 -1.2704178792106144 7.071273770101217 -0.36145372185497104 -2.9812949731538256 -3.541494548033449 4.348364469562307" Properties=species:S:1:pos:R:3 unique_starting_index=38 config_type=initial n_minim_iter=8 pbc="T T T"
Si       3.86999345       4.14821699       1.25433913
Si       0.38416545       1.02558661       3.09402526
Si      -0.93740740      -0.56628300       3.09402526
Si       2.54842059       2.55634737       1.25433913
Si       2.07443192      -0.03091017       3.47274360
Si       2.52057378       5.61527280       0.87562080
Si       0.85815412       3.61284416       0.87562080
Si       0.41201227      -2.03333881       3.47274360
8
Lattice="6.944504388015624 0.1367431269724712 0.2953349812377013 -1.143157296014006 6.851133575877239 -0.2953349812376998 -2.964901536783077 -3.4406161645296796 4.629593020493067" Properties=species:S:1:pos:R:3 unique_starting_index=38 config_type=initial n_minim_iter=9 pbc="T T T"
Si       3.77659908       4.06452194       1.31923626
Si       0.33547394       1.01926742       3.31035670
Si      -0.94015376      -0.51726003       3.31035670
Si       2.50097138       2.52799449       1.31923626
Si       1.94537583       0.01903774       3.67735016
Si       2.49727067       5.46293615       0.95224280
Si       0.89106950       3.52822418       0.95224280
Si       0.33917466      -1.91567424       3.67735016
8
Lattice="7.102339961337423 0.08138651345171277 0.3624547969681283 -1.2266057892436368 6.9960914036893715 -0.3624547969681257 -2.9566821208265157 -3.5231186847812017 4.63025198014584" Properties=species:S:1:pos:R:3 unique_starting_index=38 config_type=initial n_minim_iter=10 pbc="T T T"
Si       3.85762891       4.10199613       1.31808612
Si       0.36562102       1.02330580       3.31216579
Si      -0.93857710      -0.54763549       3.31216579
Si       2.55343078       2.53105484       1.31808612
Si       2.01674578      -0.03189575       3.70466320
Si       2.51668319       5.53081656       0.92558871
Si       0.90230603       3.58625638       0.92558871
Si       0.40236862      -1.97645593       3.70466320
8
Lattice="7.067551883178538 0.04813580895481567 0.35387413830583886 -1.2528890856595163 6.955780014963062 -0.3538741383058355 -2.932791693342739 -3.480820732208516 4.590153892590208" Properties=species:S:1:pos:R:3 unique_starting_index=38 config_type=initial n_minim_iter=11 pbc="T T T"
Si       3.82596936       4.05553902       1.30178449
Si       0.34967161       1.02593794       3.28836933
Si      -0.94409851      -0.53244254       3.28836933
Si       2.53219924       2.49715854       1.30178449
Si       1.99347123      -0.03785069       3.67567053
Si       2.47793070       5.47557960       0.91448329
Si       0.88839962       3.56094718       0.91448329
Si       0.40394015      -1.95248312       3.67567053
8
Lattice="7.080914852017262 0.0610685737280453 0.34618018404758577 -1.242635412815372 6.971294122545184 -0.34618018404758394 -2.9509620194321102 -3.489762420837703 4.5959876106252695" Properties=species:S:1:pos:R:3 unique_starting_index=38 config_type=initial n_minim_iter=12 pbc="T T T"
Si       3.84417301       4.07451872       1.30053421
Si       0.34680815       1.03838087       3.29545333
Si      -0.95685584      -0.53191705       3.29545333
Si       2.54050902       2.50422081       1.30053421
Si       1.98760083      -0.03098324       3.68027437
Si       2.49120722       5.49057797       0.91571317
Si       0.89971634       3.57358492       0.91571317
Si       0.39610995      -1.94797630       3.68027437
8
Lattice="7.075371192233595 0.048533861826296036 0.3409512164973645 -1.2539363292418406 6.963539094874128 -0.3409512164973639 -2.9470004323169765 -3.4759142695229244 4.598273507882872" Properties=species:S:1:pos:R:3 unique_starting_index=38 config_type=initial n_minim_iter=13 pbc="T T T"
Si       3.83578487       4.06162888       1.29908075
Si       0.33964305       1.04161273       3.29919269
Si      -0.96135070      -0.52546880       3.29919269
Si       2.53479113       2.49454735       1.29908075
Si       1.97921983      -0.03208230       3.68232141
Si       2.47878577       5.47569624       0.91595202
Si       0.89521435       3.56824238       0.91595202
Si       0.39564840      -1.93953616       3.68232141
8
Lattice="7.072971246898138 0.042050305016457644 0.33462326089211386 -1.259867713103397 6.959987344318914 -0.33462326089211336 -2.9481038622865126 -3.4665222045922253 4.601799106638902" Properties=species:S:1:pos:R:3 unique_starting_index=38 config_type=initial n_minim_iter=14 pbc="T T T"
Si       3.83302288       4.05567456       1.29768971
Si       0.33319504       1.04719453       3.30410933
Si      -0.96802346      -0.52015772       3.30410933
Si       2.53180438       2.48832231       1.29768971
Si       1.97056821      -0.03098669       3.68520272
Si       2.47201955       5.46675060       0.91659632
Si       0.89443121       3.56650353       0.91659632
Si       0.39297987      -1.93123376       3.68520272
8
Lattice="7.030130635915782 -0.04158684789195028 0.26016767257022205 -1.334196065569397 6.902491367801801 -0.26016767257022144 -2.951138054001235 -3.3447997126688462 4.647097638299465" Properties=species:S:1:pos:R:3 unique_starting_index=38 config_type=initial n_minim_iter=15 pbc="T T T"
Si       3.78846209       3.97104236       1.28162296
Si       0.25517088       1.10954718       3.36547463
Si      -1.04366584      -0.45493617       3.36547463
Si       2.48962536       2.40655901       1.28162296
Si       1.86429310      -0.01875063       3.72286395
Si       2.38339483       5.34512977       0.92423364
Si       0.88050315       3.53485682       0.92423364
Si       0.36140142      -1.82902358       3.72286395
8
Lattice="6.990573060518794 0.14311347344254657 0.3173289471300513 -1.1453708382679115 6.8975878989381005 -0.3173289471300511 -2.9707912285031184 -3.480343169000133 4.72055914578039" Properties=species:S:1:pos:R:3 unique_starting_index=38 config_type=initial n_minim_iter=16 pbc="T T T"
Si       3.91289221       4.07981256       1.29320905
Si       0.31954031       1.11632032       3.42735003
Si      -1.03848145      -0.51945297       3.42735003
Si       2.55487045       2.44403927       1.29320905
Si       1.86497229      -0.00187985       3.81058102
Si       2.52946720       5.39315443       0.90997806
Si       1.00943847       3.56223944       0.90997806
Si       0.34494356      -1.83279484       3.81058102
8
Lattice="6.920528927702562 -0.0331730893704719 0.31042998412406403 -1.3057627049911864 6.796308178068473 -0.3104299841240637 -2.8645685346018066 -3.334092108968399 4.713001224994353" Properties=species:S:1:pos:R:3 unique_starting_index=38 config_type=initial n_minim_iter=17 pbc="T T T"
Si       3.77100648       3.89984097       1.29029732
Si       0.27496555       1.08999832       3.42270384
Si      -1.02080906      -0.47079662       3.42270384
Si       2.47523188       2.33904603       1.29029732
Si       1.83904370      -0.04289010       3.80445970
Si       2.36971363       5.22880859       0.90854146
Si       0.91115373       3.47193444       0.90854146
Si       0.38048380      -1.79976425       3.80445970
8
Lattice="6.947286687116975 -0.02099101702793071 0.30135315473420793 -1.2987111246527385 6.824850353706797 -0.30135315473420865 -2.8895814273833182 -3.3477227725493326 4.750774167044256" Properties=species:S:1:pos:R:3 unique_starting_index=38 config_type=initial n_minim_iter=18 pbc="T T T"
Si       3.79334767       3.92639899       1.29852521
Si       0.27194732       1.10321335       3.45224889
Si      -1.03435379      -0.47026105       3.45224889
Si       2.48704655       2.35292458       1.29852521
Si       1.83738996      -0.03441908       3.83274637
Si       2.38714074       5.25583506       0.91802774
Si       0.92160391       3.49055702       0.91802774
Si       0.37185313      -1.79969713       3.83274637
8
Lattice="6.934039750360717 -0.03382058875701132 0.29948890974100933 -1.3088847119165314 6.809469282015857 -0.2994889097410112 -2.8792688630437473 -3.3324570798624453 4.7549918103970565" Properties=species:S:1:pos:R:3 unique_starting_index=38 config_type=initial n_minim_iter=19 pbc="T T T"
Si       3.77944396       3.90836991       1.29871455
Si       0.26709636       1.10149586       3.45627720
Si      -1.03355804      -0.46517693       3.45627720
Si       2.47878955       2.34169712       1.29871455
Si       1.83114534      -0.03659276       3.83634773
Si       2.37304501       5.23635218       0.91864402
Si       0.91474057       3.47978574       0.91864402
Si       0.37284090      -1.79315920       3.83634773
8
Lattice="6.93194922986129 -0.03271474146208875 0.2988654739162361 -1.3074131501064004 6.807617882535147 -0.2988654739162372 -2.8793315540074147 -3.3317753273482884 4.760344474930517" Properties=species:S:1:pos:R:3 unique_starting_index=38 config_type=initial n_minim_iter=20 pbc="T T T"
Si       3.78022829       3.90795261       1.29938135
Si       0.26647921       1.10287179       3.46096306
Si      -1.03502402      -0.46482343       3.46096306
Si       2.47872505       2.34025739       1.29938135
Si       1.82877752      -0.03587157       3.84106529
Si       2.37350785       5.23409365       0.91927912
Si       0.91642675       3.47900075       0.91927912
Si       0.37169641      -1.79096447       3.84106529
8
Lattice="6.926169573775753 -0.034221203096918146 0.29854402841429734 -1.3078306280867882 6.8016597315417435 -0.29854402841429706 -2.876292381814196 -3.327993711337466 4.767321556786052" Properties=species:S:1:pos:R:3 unique_starting_index=38 config_type=initial n_minim_iter=21 pbc="T T T"
Si       3.77822993       3.90313196       1.30012405
Si       0.26514764       1.10380231       3.46719745
Si      -1.03618363      -0.46368577       3.46719745
Si       2.47689867       2.33564387       1.30012405
Si       1.82487606      -0.03594785       3.84751282
Si       2.37099265       5.22656176       0.91980867
Si       0.91717024       3.47539404       0.91980867
Si       0.37105365      -1.78711558       3.84751282
8
Lattice="6.862343002087785 -0.05168257870772879 0.30339305099323166 -1.3132519308478996 6.735710202597001 -0.3033930509932315 -2.8355375277078703 -3.2913781566546123 4.842439656770845" Properties=species:S:1:pos:R:3 unique_starting_index=38 config_type=initial n_minim_iter=22 pbc="T T T"
Si       3.75792636       3.84806158       1.30808353
Si       0.25550726       1.11032964       3.53435607
Si      -1.04437308      -0.45541077       3.53435607
Si       2.45804602       2.28232118       1.30808353
Si       1.78676080      -0.04184142       3.91976600
Si       2.34371864       5.14121745       0.92267359
Si       0.92679248       3.43449224       0.92267359
Si       0.36983464      -1.74856664       3.91976600
8
Lattice="6.825221622410164 -0.08377974597718413 0.3209881078675864 -1.3379721255452333 6.693317550521209 -0.32098810786758597 -2.789868842572073 -3.266376976875037 4.857871349818579" Properties=species:S:1:pos:R:3 unique_starting_index=38 config_type=initial n_minim_iter=23 pbc="T T T"
Si       3.72822034       3.79898872       1.31127764
Si       0.25840560       1.09710398       3.54659364
Si      -1.03083996      -0.45582655       3.54659364
Si       2.43897478       2.24605819       1.31127764
Si       1.78138819      -0.06247769       3.93838045
Si       2.30825010       5.08265149       0.91949083
Si       0.91599219       3.40563986       0.91949083
Si       0.38913029      -1.73948932       3.93838045
8
Lattice="6.809962207653348 -0.005072360502320039 0.3412276799527255 -1.257800855365169 6.692798219485675 -0.3412276799527252 -2.802309918275097 -3.32208736818275 5.063404806522912" Properties=species:S:1:pos:R:3 unique_starting_index=38 config_type=initial n_minim_iter=24 pbc="T T T"
Si       3.79903274       3.86402228       1.35733817
Si       0.29686091       1.12296146       3.70606656
Si      -1.04918156      -0.49838245       3.70606656
Si       2.45299027       2.24267837       1.35733817
Si       1.75272656      -0.07924591       4.11013483
Si       2.34951168       5.07387188       0.95326990
Si       0.99712462       3.44488574       0.95326990
Si       0.40033950      -1.70823205       4.11013483
8
Lattice="6.72915097983118 -0.0836716711896368 0.34452308254289976 -1.3201919722068702 6.598906501416971 -0.34452308254289943 -2.727341616937089 -3.238637250017127 5.0340660811239095" Properties=species:S:1:pos:R:3 unique_starting_index=38 config_type=initial n_minim_iter=25 pbc="T T T"
Si       3.70871723       3.75382010       1.34964694
Si       0.28012310       1.09736388       3.68441907
Si      -1.02710011      -0.47722120       3.68441907
Si       2.40149403       2.17923502       1.34964694
Si       1.73306781      -0.10281971       4.08777890
Si       2.26172278       4.96117093       0.94628711
Si       0.94854931       3.37941861       0.94628711
Si       0.41989435      -1.68457203       4.08777890
8
Lattice="6.637580752488371 -0.1655263929363105 0.35436438265614467 -1.3838036259851563 6.493840524471859 -0.3543643826561442 -2.6407117944605867 -3.152680995770205 5.017053143692877" Properties=species:S:1:pos:R:3 unique_starting_index=38 config_type=initial n_minim_iter=26 pbc="T T T"
Si       3.61226864       3.63442958       1.34465570
Si       0.26714358       1.06655367       3.67239737
Si      -0.99920359      -0.45879514       3.67239737
Si       2.34592147       2.10908077       1.34465570
Si       1.71127632      -0.13347291       4.07686148
Si       2.16704963       4.83314772       0.94019160
Si       0.90178873       3.30910735       0.94019160
Si       0.44601542      -1.65751328       4.07686148
8
Lattice="6.680020755147385 -0.12180496846998398 0.3603793085326216 -1.348636030570575 6.5435995137684495 -0.3603793085326217 -2.6749066136465176 -3.203247585541908 5.031117312754259" Properties=species:S:1:pos:R:3 unique_starting_index=38 config_type=initial n_minim_iter=27 pbc="T T T"
Si       3.66266796       3.69240940       1.34776660
Si       0.28066713       1.07619263       3.68335064
Si      -1.00619012      -0.47386113       3.68335064
Si       2.37581071       2.14235564       1.34776660
Si       1.72396484      -0.12557634       4.08955799
Si       2.21588993       4.88998621       0.94155925
Si       0.93251300       3.34412461       0.94155925
Si       0.44058791      -1.67143794       4.08955799
8
Lattice="6.6807968392935235 -0.11000213661177463 0.3630260730316913 -1.3371774213170935 6.546533695162138 -0.36302607303169077 -2.6784741219494643 -3.212732972330135 5.0341545472101945" Properties=species:S:1:pos:R:3 unique_starting_index=38 config_type=initial n_minim_iter=28 pbc="T T T"
Si       3.67082437       3.70182559       1.34778479
Si       0.28485459       1.07645672       3.68636969
Si      -1.00567934      -0.47802569       3.68636969
Si       2.38029044       2.14734318       1.34778479
Si       1.72366106      -0.12519154       4.09252939
Si       2.22499123       4.89501004       0.94162509
Si       0.94148397       3.34899144       0.94162509
Si       0.44015380      -1.67121014       4.09252939
8
Lattice="6.6763847230144 -0.10492143053065751 0.36469094295216686 -1.3313717433649694 6.54313157114038 -0.3646909429521669 -2.6774355297775445 -3.215012972975059 5.037842795150226" Properties=species:S:1:pos:R:3 unique_starting_index=38 config_type=initial n_minim_iter=29 pbc="T T T"
Si       3.67188380       3.70296827       1.34767235
Si       0.28682146       1.07542828       3.69017037
Si      -1.00430662      -0.47976979       3.69017037
Si       2.38075572       2.14777020       1.34767235
Si       1.72083008      -0.12624734       4.09566629
Si       2.22690641       4.89143172       0.94217643
Si       0.94674711       3.34944582       0.94217643
Si       0.44067077      -1.66823324       4.09566629
8
Lattice="6.679969192281741 -0.09270274516979093 0.36559566153522527 -1.3200210312685565 6.548902708530941 -0.3655956615352252 -2.683876893357773 -3.224859859831314 5.043769487335007" Properties=species:S:1:pos:R:3 unique_starting_index=38 config_type=initial n_minim_iter=30 pbc="T T T"
Si       3.68120422       3.71415524       1.34784775
Si       0.28966147       1.07680078       3.69592166
Si      -1.00513322      -0.48281382       3.69592166
Si       2.38640954       2.15454064       1.34784775
Si       1.71940453      -0.12468171       4.10026886
Si       2.23720140       4.89846146       0.94350055
Si       0.95666647       3.35602312       0.94350055
Si       0.43886960      -1.66712004       4.10026886
8
Lattice="6.674976955265727 -0.09436949641652168 0.3653468060877948 -1.3207409229799765 6.543689048965304 -0.3653468060877944 -2.6810622608348775 -3.221385257640601 5.046113893561294" Properties=species:S:1:pos:R:3 unique_starting_index=38 config_type=initial n_minim_iter=31 pbc="T T T"
Si       3.67729116       3.70962619       1.34763293
Si       0.28874423       1.07559591       3.69848089
Si      -1.00411766      -0.48169058       3.69848089
Si       2.38442928       2.15233970       1.34763293
Si       1.71630936      -0.12558907       4.10181773
Si       2.23398144       4.89184639       0.94429609
Si       0.95686415       3.35352467       0.94429609
Si       0.43919206      -1.66391078       4.10181773
8
Lattice="6.677862134794026 -0.08923971955642733 0.3653398089673431 -1.3162294806296135 6.547468699671949 -0.3653398089673424 -2.6847051331580265 -3.225885996657163 5.0479527471026895" Properties=species:S:1:pos:R:3 unique_starting_index=38 config_type=initial n_minim_iter=32 pbc="T T T"
Si       3.68179799       3.71506528       1.34768130
Si       0.28961850       1.07652569       3.70027137
Si      -1.00487074      -0.48272098       3.70027137
Si       2.38730875       2.15581860       1.34768130
Si       1.71634235      -0.12433626       4.10313500
Si       2.23896054       4.89651798       0.94481768
Si       0.96058490       3.35668056       0.94481768
Si       0.43796671      -1.66417369       4.10313500
8
Lattice="6.67742113627373 -0.08806536409155759 0.3652185838989817 -1.3149940391761357 6.547251271826906 -0.3652185838989802 -2.685137748619486 -3.226335076312499 5.049215848637639" Properties=species:S:1:pos:R:3 unique_starting_index=38 config_type=initial n_minim_iter=33 pbc="T T T"
Si       3.68213354       3.71551997       1.34762723
Si       0.28957109       1.07649009       3.70158854
Si      -1.00484446      -0.48266783       3.70158854
Si       2.38771800       2.15636206       1.34762723
Si       1.71547638      -0.12411631       4.10397401
Si       2.23969788       4.89621510       0.94524177
Si       0.96181271       3.35696845       0.94524177
Si       0.43759120      -1.66336295       4.10397401
8
Lattice="6.677488672112781 -0.0837570585045651 0.36491754776472873 -1.3107716911701033 6.548110245305206 -0.3649175477647274 -2.6873708943630943 -3.2288454888832776 5.052581055117226" Properties=species:S:1:pos:R:3 unique_starting_index=38 config_type=initial n_minim_iter=34 pbc="T T T"
Si       3.68440179       3.71834959       1.34751769
Si       0.28970198       1.07672977       3.70506329
Si      -1.00505597      -0.48284058       3.70506329
Si       2.38964384       2.15877925       1.34751769
Si       1.71362551      -0.12313143       4.10621212
Si       2.24306319       4.89723388       0.94636886
Si       0.96572031       3.35864044       0.94636886
Si       0.43628263      -1.66172486       4.10621212
8
Lattice="6.676798914604302 -0.06072657232924983 0.3627953631066327 -1.2880073906226173 6.551669132698147 -0.3627953631066311 -2.699249285089219 -3.2414418770753075 5.0715002975877805" Properties=species:S:1:pos:R:3 unique_starting_index=38 config_type=initial n_minim_iter=35 pbc="T T T"
Si       3.69554659       3.73208935       1.34670989
Si       0.28927856       1.07761564       3.72479033
Si      -1.00600461      -0.48258736       3.72479033
Si       2.40026342       2.17188636       1.34670989
Si       1.70286614      -0.11700704       4.11837407
Si       2.26125858       4.90177781       0.95312616
Si       0.98667584       3.36650904       0.95312616
Si       0.42828340      -1.65227582       4.11837407
8
Lattice="6.65531207573318 -0.07837574903186216 0.361234606430477 -1.3014024447324999 6.527302142560935 -0.36123460643047517 -2.6827710933666076 -3.2196345130140047 5.070504682392924" Properties=species:S:1:pos:R:3 unique_starting_index=38 config_type=initial n_minim_iter=36 pbc="T T T"
Si       3.67267120       3.70365286       1.34419274
Si       0.28201395       1.07170664       3.72631187
Si      -1.00153293      -0.47435967       3.72631187
Si       2.38912433       2.15758655       1.34419274
Si       1.69278452      -0.12031124       4.11540523
Si       2.24146178       4.87105160       0.95509938
Si       0.97835375       3.34960443       0.95509938
Si       0.42967650      -1.64175841       4.11540523
8
Lattice="6.6720757669177635 -0.06226154782197867 0.36260063545640675 -1.288647259521113 6.546744212229259 -0.36260063545640464 -2.6965723788127414 -3.2382081084929766 5.077928770960507" Properties=species:S:1:pos:R:3 unique_starting_index=38 config_type=initial n_minim_iter=37 pbc="T T T"
Si       3.69201657       3.72577965       1.34570409
Si       0.28640287       1.07621886       3.73222460
Si      -1.00516071      -0.47950379       3.73222460
Si       2.40045300       2.17005701       1.34570409
Si       1.69659254      -0.11702788       4.12120614
Si       2.25970613       4.89238133       0.95672255
Si       0.99026333       3.36330375       0.95672255
Si       0.42714973      -1.64610546       4.12120614
8
Lattice="6.670817972523507 -0.06133552509997787 0.36264634268553464 -1.2875056480292488 6.545678244114573 -0.3626463426855326 -2.6963870126015226 -3.2382437995182958 5.07874358940867" Properties=species:S:1:pos:R:3 unique_starting_index=38 config_type=initial n_minim_iter=38 pbc="T T T"
Si       3.69200140       3.72544450       1.34548727
Si       0.28626159       1.07610660       3.73325625
Si      -1.00507635      -0.47934427       3.73325625
Si       2.40066346       2.16999364       1.34548727
Si       1.69545416      -0.11681909       4.12140323
Si       2.26018997       4.89112516       0.95734029
Si       0.99147089       3.36291932       0.95734029
Si       0.42673508      -1.64502493       4.12140323
8
Lattice="6.667523826875653 -0.05782943462556116 0.3628380358771001 -1.2834533813257778 6.543085330593452 -0.36283803587709745 -2.6963343839306897 -3.239058777099916 5.083786695125338" Properties=species:S:1:pos:R:3 unique_starting_index=38 config_type=initial n_minim_iter=39 pbc="T T T"
Si       3.69289109       3.72485582       1.34491818
Si       0.28557191       1.07605782       3.73886844
Si      -1.00515528      -0.47865738       3.73886844
Si       2.40216389       2.17014061       1.34491818
Si       1.69089588      -0.11600362       4.12334749
Si       2.26264084       4.88689289       0.96043913
Si       0.99683993       3.36220206       0.96043913
Si       0.42509496      -1.64069446       4.12334749
8
Lattice="6.66440695249695 -0.0595213089673491 0.3644358047728183 -1.2845429740346628 6.539710403570573 -0.36443580477281584 -2.6928580585589468 -3.2376653195822747 5.105910799927379" Properties=species:S:1:pos:R:3 unique_starting_index=38 config_type=initial n_minim_iter=40 pbc="T T T"
Si       3.69304596       3.71744012       1.34519455
Si       0.28173062       1.07623926       3.76071618
Si      -1.00604030      -0.47491504       3.76071618
Si       2.40527504       2.16628583       1.34519455
Si       1.67865982      -0.11686404       4.13379374
Si       2.26331602       4.87103404       0.97211699
Si       1.00834585       3.35938913       0.97211699
Si       0.42368965      -1.62850895       4.13379374
8
Lattice="6.6486170608208495 -0.03403050109890054 0.37429844139638757 -1.2565824026346974 6.528879502780861 -0.37429844139638485 -2.689293707522564 -3.2530064628738633 5.0987976428861" Properties=species:S:1:pos:R:3 unique_starting_index=38 config_type=initial n_minim_iter=41 pbc="T T T"
Si       3.70368494       3.72590613       1.34209344
Si       0.29165926       1.07291298       3.75670412
Si      -1.00094424      -0.48406228       3.75670412
Si       2.41108144       2.16893087       1.34209344
Si       1.67631509      -0.11619838       4.12601129
Si       2.28013670       4.86817055       0.97278628
Si       1.02642561       3.35804223       0.97278628
Si       0.42260399      -1.62632670       4.12601129
8
Lattice="6.652262354989826 -0.05723473258115299 0.36825654120237766 -1.2800612071878958 6.528193744067438 -0.3682565412023743 -2.6853005153743488 -3.236143715689046 5.110944116500453" Properties=species:S:1:pos:R:3 unique_starting_index=38 config_type=initial n_minim_iter=42 pbc="T T T"
Si       3.69079608       3.71019566       1.34442898
Si       0.28258126       1.07421663       3.76651506
Si      -1.00389571      -0.47537905       3.76651506
Si       2.40431912       2.16059998       1.34442898
Si       1.67208091      -0.11815320       4.13307149
Si       2.26315388       4.85662177       0.97787255
Si       1.01481947       3.35296980       0.97787255
Si       0.42374649      -1.62180517       4.13307149
8
Lattice="6.6583300664248295 -0.05363381472332419 0.36906242174542264 -1.2776380136356578 6.53482034685361 -0.3690624217454192 -2.689028806004672 -3.2416868246671995 5.114918499160561" Properties=species:S:1:pos:R:3 unique_starting_index=38 config_type=initial n_minim_iter=43 pbc="T T T"
Si       3.69674170       3.71630666       1.34518845
Si       0.28376587       1.07564189       3.76972997
Si      -1.00507871      -0.47680565       3.76972997
Si       2.40789712       2.16385913       1.34518845
Si       1.67318422      -0.11760514       4.13567253
Si       2.26825222       4.86249149       0.97924589
Si       1.01847877       3.35710616       0.97924589
Si       0.42341077      -1.62299047       4.13567253
8
Lattice="6.656774509082903 -0.055328191121977795 0.3695487718389715 -1.2790172980560537 6.532979628376495 -0.3695487718389687 -2.687159992021568 -3.2402525144634176 5.1151615373119315" Properties=species:S:1:pos:R:3 unique_starting_index=38 config_type=initial n_minim_iter=44 pbc="T T T"
Si       3.69514967       3.71382726       1.34508258
Si       0.28349047       1.07505521       3.77007888
Si      -1.00455270      -0.47642702       3.77007888
Si       2.40710649       2.16234503       1.34508258
Si       1.67259322      -0.11821681       4.13544680
Si       2.26669369       4.85969726       0.97971466
Si       1.01800374       3.35561704       0.97971466
Si       0.42390327      -1.62229703       4.13544680
8
Lattice="6.656748673095299 -0.055574152896114705 0.3700612324636197 -1.279254308817629 6.532908984257917 -0.3700612324636169 -2.686620542777046 -3.2404329552863977 5.1160557453369755" Properties=species:S:1:pos:R:3 unique_starting_index=38 config_type=initial n_minim_iter=45 pbc="T T T"
Si       3.69528199       3.71339619       1.34513581
Si       0.28358188       1.07492553       3.77091986
Si      -1.00440843      -0.47649301       3.77091986
Si       2.40729169       2.16197766       1.34513581
Si       1.67235990      -0.11848837       4.13573091
Si       2.26674630       4.85892092       0.98032476
Si       1.01851367       3.35539155       0.98032476
Si       0.42412726      -1.62201774       4.13573091
8
Lattice="6.654267291941115 -0.06108901948682411 0.3822087068037156 -1.2842185542533007 6.529455395805298 -0.3822087068037126 -2.6731309842203514 -3.2440570962480475 5.137763387682624" Properties=species:S:1:pos:R:3 unique_starting_index=38 config_type=initial n_minim_iter=46 pbc="T T T"
Si       3.69777880       3.70218830       1.34626715
Si       0.28559550       1.07169369       3.79149616
Si      -1.00086131      -0.47787771       3.79149616
Si       2.41132200       2.15261690       1.34626715
Si       1.66579459      -0.12473286       4.14202756
Si       2.26786012       4.83872629       0.99573575
Si       1.03112290       3.34904345       0.99573575
Si       0.42905738      -1.61441570       4.14202756
8
Lattice="6.6118376140070065 -0.0337100899551092 0.3774676352484302 -1.2495012192386468 6.492786744325117 -0.3774676352484268 -2.670223785256988 -3.238624396697623 5.163954354598794" Properties=species:S:1:pos:R:3 unique_starting_index=38 config_type=initial n_minim_iter=47 pbc="T T T"
Si       3.69711970       3.69457515       1.34321201
Si       0.28114075       1.07507796       3.82074227
Si      -1.00500735      -0.47412159       3.82074227
Si       2.41097161       2.14537560       1.34321201
Si       1.63231255      -0.11197715       4.13278597
Si       2.28175261       4.80430533       1.03116831
Si       1.05979980       3.33243071       1.03116831
Si       0.41035975      -1.58385177       4.13278597
8
Lattice="6.662359310270558 -0.07519251110224391 0.3892477212700112 -1.299570003143171 6.534814710441703 -0.38924772127000773 -2.664668780683508 -3.2436969477063777 5.187834223647737" Properties=species:S:1:pos:R:3 unique_starting_index=38 config_type=initial n_minim_iter=48 pbc="T T T"
Si       3.70283672       3.68850123       1.34917751
Si       0.27967374       1.07450745       3.83865663
Si      -1.00471645      -0.47257467       3.83865663
Si       2.41844652       2.14141911       1.34917751
Si       1.64849968      -0.12638543       4.15308232
Si       2.27062024       4.81303852       1.03475182
Si       1.04962058       3.34231199       1.03475182
Si       0.42750002      -1.59711196       4.15308232
8
Lattice="6.638098995135185 -0.06886492354537302 0.39811385247257064 -1.2888872919194818 6.512132538242622 -0.39811385247256686 -2.649370148050227 -3.242584531248617 5.167014278613167" Properties=species:S:1:pos:R:3 unique_starting_index=38 config_type=initial n_minim_iter=49 pbc="T T T"
Si       3.69519495       3.67792619       1.34439427
Si       0.28598367       1.06616306       3.82261993
Si      -0.99535366      -0.47724180       3.82261993
Si       2.41385762       2.13452133       1.34439427
Si       1.64843709      -0.12984650       4.13830336
Si       2.26895079       4.79709809       1.02871083
Si       1.05140421       3.33053089       1.02871083
Si       0.43089051      -1.59641370       4.13830336
8
Lattice="6.647099891164601 -0.0634308039730805 0.39798432811354084 -1.2852017973874472 6.521979513154374 -0.39798432811353707 -2.656018240960964 -3.249971951961016 5.171819815637291" Properties=species:S:1:pos:R:3 unique_starting_index=38 config_type=initial n_minim_iter=50 pbc="T T T"
Si       3.70357549       3.68750954       1.34535065
Si       0.28721361       1.06877616       3.82646908
Si      -0.99769590      -0.47893147       3.82646908
Si       2.41866598       2.13980190       1.34535065
Si       1.64992033      -0.12834286       4.14148669
Si       2.27619420       4.80672632       1.03033304
Si       1.05595926       3.33692092       1.03033304
Si       0.42968540      -1.59814825       4.14148669
