24
Lattice="13.271219001483292 -0.039185513771774524 -7.866318024547957 -6.5811573113841675 5.515972178515641 6.394702677545417 -7.0662257546449245 2.0213642440520174 21.29523238334123" Properties=species:S:1:pos:R:3 unique_starting_index=90 config_type=initial n_minim_iter=1 energy=-3982.195391928376 free_energy=-3982.195391928376 pbc="T T T"
Si       5.03948575       1.10297811       9.44876999
Si      -1.89631374       2.32307217       4.51315719
Si       5.70416383       5.44656048       5.24447200
Si      -0.83830505       1.38299334       4.51947020
Si       2.60736535       3.50074034      17.48223201
Si     -11.42089997       5.99948023      23.15447060
Si      -1.09153148       2.19520141       5.49277824
Si      -0.62370198       4.83704641      16.24358409
Si     -11.72420190       7.89069910      23.00253933
Si       5.29822224       3.31575906       7.11209706
Si       0.26601983       3.55812304       3.37631461
Si       4.90420318       4.95169943       4.86102071
Si       4.52108666       6.53411234       2.83374850
Si       3.28542353       2.89736016      12.33386520
Si      -3.23184015       3.38180026       3.44149357
Si     -13.00689199       7.01530184      22.90899645
Si      -2.51062375       1.87249523       5.53974411
Si       1.24834832       4.87818307      16.87553889
Si      -3.83474003       3.78684779      15.95466798
Si      -6.68246475       3.80086015      15.06273989
Si      -1.21516665       5.84545967      14.60581624
Si       9.81792130       0.13788565      -2.41307194
Si       6.23654705       2.86833792       6.37181328
Si      -0.08097212       4.40658742       4.49846339
24
Lattice="13.229126120094794 -0.010524484386637714 -7.878365739722126 -6.559328350973673 5.515736914808815 6.386011746795394 -7.066906067609961 1.9745728447850388 21.281756151484522" Properties=species:S:1:pos:R:3 unique_starting_index=90 config_type=initial n_minim_iter=2 stress="0.003586730844999088 0.00032644490595526204 -0.001087217069434722 0.00032644490595526204 0.012220531213624179 -0.006981665853108407 -0.001087217069434722 -0.006981665853108407 0.010413863235249484" pbc="T T T"
Si       5.00671930       1.08915323       9.43036548
Si      -1.89352015       2.31911884       4.50593020
Si       5.67674243       5.45800331       5.22008357
Si      -0.84020266       1.37719487       4.51267984
Si       2.57439093       3.47450982      17.45588374
Si     -11.40363726       5.95790320      23.13796229
Si      -1.09322329       2.19045981       5.48468875
Si      -0.64076590       4.81757719      16.21889274
Si     -11.70343900       7.85681396      22.98117578
Si       5.26965411       3.31581444       7.09021355
Si       0.26352618       3.56357763       3.36533365
Si       4.88152333       4.96201735       4.83861535
Si       4.50412533       6.55541928       2.80963610
Si       3.25682614       2.88238755      12.31128028
Si      -3.22144282       3.38493394       3.43380813
Si     -12.98158364       6.97796696      22.89155127
Si      -2.50759726       1.86527709       5.53420487
Si       1.22286399       4.85932487      16.84615998
Si      -3.83854194       3.76133513      15.93756657
Si      -6.67390335       3.77475501      15.05044535
Si      -1.22677838       5.83212357      14.58163024
Si       9.78197153       0.15198088      -2.42542887
Si       6.20495485       2.86969099       6.35044297
Si      -0.08322097       4.41168958       4.48479487
24
Lattice="13.19408117679663 -0.008519646669751682 -7.8631214554798525 -6.541234516764311 5.510974129446593 6.373443768959386 -7.056467501685312 1.9781218761235875 21.22608523423466" Properties=species:S:1:pos:R:3 unique_starting_index=90 config_type=initial n_minim_iter=3 stress="-0.014262759329641403 0.00494738434213669 -0.009690296309593867 0.00494738434213669 -0.005912891989806324 0.008818440050657303 -0.009690296309593867 0.008818440050657303 -0.010568772384848255" pbc="T T T"
Si       4.98762030       1.09276583       9.40133888
Si      -1.88972387       2.31742417       4.49424257
Si       5.65747781       5.45654968       5.20533049
Si      -0.83944008       1.37747934       4.50002428
Si       2.55880956       3.47791094      17.40755889
Si     -11.38041718       5.95568213      23.08230912
Si      -1.09197553       2.19089953       5.47103157
Si      -0.64580546       4.82000412      16.17495726
Si     -11.67752757       7.85388741      22.92551336
Si       5.25189422       3.31762648       7.06804427
Si       0.26288522       3.56202159       3.35763520
Si       4.86677565       4.96080330       4.82448810
Si       4.49162958       6.55328708       2.80148800
Si       3.24183549       2.88547640      12.27555299
Si      -3.21302426       3.38333341       3.42544846
Si     -12.95229307       6.97601884      22.83642368
Si      -2.50310620       1.86554473       5.52068553
Si       1.21218674       4.86297194      16.79782274
Si      -3.83346730       3.76273304      15.89629963
Si      -6.66027706       3.77456407      15.01302124
Si      -1.22898809       5.83180629      14.54370760
Si       9.75384668       0.15488141      -2.42402179
Si       6.18475059       2.87243951       6.32997840
Si      -0.08341235       4.40899809       4.47409689
24
Lattice="13.161864107087627 -0.011147988598339055 -7.803752099836269 -6.524961168065349 5.502399512482102 6.32756792920275 -6.993818124136055 1.9481561072538391 21.142943840720033" Properties=species:S:1:pos:R:3 unique_starting_index=90 config_type=initial n_minim_iter=4 stress="-0.005324386826339339 -0.008873638881756107 0.002341605290058795 -0.008873638881756107 0.0016728836253168964 0.0016282398576945817 0.002341605290058795 0.0016282398576945817 -0.009038837001009202" pbc="T T T"
Si       5.00964814       1.06681228       9.38667430
Si      -1.87885227       2.30691017       4.47009577
Si       5.65579171       5.43294342       5.20032704
Si      -0.82735336       1.36966003       4.47993096
Si       2.60171616       3.43839276      17.36316835
Si     -11.31641972       5.91982415      22.97818168
Si      -1.07801273       2.18265951       5.45045723
Si      -0.60612334       4.79021746      16.11898055
Si     -11.61200440       7.81929370      22.81527262
Si       5.26486004       3.29580140       7.05555350
Si       0.26978972       3.55266446       3.34491721
Si       4.87317606       4.93898559       4.81753041
Si       4.48780812       6.53868783       2.79418529
Si       3.27063162       2.85670844      12.24426554
Si      -3.20695198       3.38138255       3.39642801
Si     -12.88532537       6.94655292      22.72402347
Si      -2.49020627       1.85960347       5.49521603
Si       1.25259963       4.83079932      16.74016467
Si      -3.78824059       3.73652201      15.83544279
Si      -6.61604821       3.75270063      14.94630531
Si      -1.19540342       5.80162429      14.49036643
Si       9.73655847       0.14847216      -2.39164810
Si       6.19592103       2.85271707       6.32367279
Si      -0.07517873       4.39500590       4.45482442
24
Lattice="13.185698038767809 0.0904169914930393 -7.814199890345936 -6.499416783596578 5.42277036758915 6.328274891807929 -6.982016827672172 1.8520712897108722 21.18692718479511" Properties=species:S:1:pos:R:3 unique_starting_index=90 config_type=initial n_minim_iter=5 stress="0.005039008528431936 0.005705415581432615 -0.001038549221183404 0.005705415581432615 0.0006138419363223951 0.0002719836857498405 -0.001038549221183404 0.0002719836857498405 -0.00700399298247994" pbc="T T T"
Si       5.03523356       1.07211803       9.41082708
Si      -1.86739439       2.27242514       4.46987747
Si       5.69834972       5.43370900       5.21208237
Si      -0.81648434       1.34979458       4.48320529
Si       2.64146306       3.40408204      17.40653552
Si     -11.29205523       5.76949004      23.01743143
Si      -1.06175683       2.15851168       5.46259792
Si      -0.56565248       4.73651303      16.14961257
Si     -11.56841639       7.66078543      22.85053961
Si       5.30481221       3.30162102       7.06801300
Si       0.29972249       3.53294664       3.35027563
Si       4.92069857       4.93578048       4.82329869
Si       4.54165231       6.53746318       2.79013976
Si       3.30549863       2.84006835      12.26973876
Si      -3.19037789       3.34027623       3.39238956
Si     -12.85029205       6.78886609      22.75898385
Si      -2.48367881       1.82811958       5.50465799
Si       1.29846854       4.78740475      16.76683947
Si      -3.75748260       3.66462441      15.86720048
Si      -6.59300966       3.66299672      14.97353048
Si      -1.15273766       5.73864598      14.51549845
Si       9.75447205       0.21791906      -2.39309390
Si       6.23588860       2.87102153       6.33597693
Si      -0.04208516       4.36292252       4.45959453
24
Lattice="13.122289206785378 0.09573284735119428 -7.852362362988048 -6.466373843981713 5.392478728017852 6.358418490828608 -6.933531987172442 1.8257287458158977 21.31384266166448" Properties=species:S:1:pos:R:3 unique_starting_index=90 config_type=initial n_minim_iter=6 stress="-0.007983808799251505 0.0007591620429204968 0.0016744647350447274 0.0007591620429204968 -0.008971281006852905 -0.002746427555011366 0.0016744647350447274 -0.002746427555011366 0.0039391490156430375" pbc="T T T"
Si       5.02187277       1.05602215       9.47325395
Si      -1.85809420       2.25508232       4.48964726
Si       5.66922574       5.40398873       5.25015835
Si      -0.80842850       1.33931462       4.50585551
Si       2.64506777       3.37370490      17.52136061
Si     -11.22921539       5.72014878      23.14709301
Si      -1.05241695       2.14692498       5.49828626
Si      -0.54877299       4.70199495      16.24913822
Si     -11.49550795       7.60390180      22.98074309
Si       5.28990963       3.27942401       7.11314677
Si       0.30540566       3.51410467       3.37300700
Si       4.90129232       4.90619320       4.85053873
Si       4.52369797       6.50742078       2.80563090
Si       3.30236962       2.81479915      12.34650575
Si      -3.17415014       3.32079291       3.40664380
Si     -12.77280039       6.74068683      22.88745129
Si      -2.47256271       1.81985657       5.53674643
Si       1.30723627       4.75190993      16.86585902
Si      -3.72359106       3.63433532      15.96447472
Si      -6.54881599       3.63331504      15.06204570
Si      -1.13810863       5.69887369      14.60236726
Si       9.71011661       0.21901230      -2.40039747
Si       6.21875124       2.85341409       6.37761364
Si      -0.03654430       4.33536219       4.48693797
24
Lattice="13.189763575685525 0.037104341783554325 -7.9081857890712906 -6.512074906197879 5.46312040381151 6.423906552308241 -7.012912458932102 1.9613890887149836 21.40604335471424" Properties=species:S:1:pos:R:3 unique_starting_index=90 config_type=initial n_minim_iter=7 stress="0.005941419996616724 0.00033900140593949287 -0.0027213883482057936 0.00033900140593949287 0.0029535848931560704 -0.00027874084940204103 -0.0027213883482057936 -0.00027874084940204103 0.010866047622648731" pbc="T T T"
Si       5.01316213       1.10577419       9.49192337
Si      -1.88312263       2.28568686       4.51018620
Si       5.64829266       5.46117215       5.29230137
Si      -0.82151645       1.36888329       4.52152483
Si       2.60758832       3.48731979      17.60057623
Si     -11.34730045       5.88224650      23.26926878
Si      -1.07346419       2.19755278       5.53839295
Si      -0.59271280       4.81717383      16.32904699
Si     -11.59144995       7.77859742      23.12488962
Si       5.29300022       3.32855629       7.13579151
Si       0.30647018       3.55158162       3.41360549
Si       4.89337506       4.94640662       4.86496888
Si       4.52509912       6.55609532       2.83970476
Si       3.28230543       2.89052329      12.38680940
Si      -3.20077527       3.35810723       3.43632415
Si     -12.87553102       6.92350906      23.02737456
Si      -2.50976148       1.87833995       5.57131595
Si       1.26497684       4.86964972      16.93053886
Si      -3.76971564       3.74559255      16.05065596
Si      -6.60582627       3.74471874      15.14911331
Si      -1.19121824       5.80750966      14.68397082
Si       9.75127389       0.19709557      -2.43132166
Si       6.23660227       2.89760344       6.39438395
Si      -0.04784262       4.37357961       4.53206268
24
Lattice="13.102205556204492 0.10967493511486111 -7.76658135770874 -6.431430296073961 5.446086297036765 6.320792371663799 -6.872890511664257 1.9038286890725336 21.161916669248374" Properties=species:S:1:pos:R:3 unique_starting_index=90 config_type=initial n_minim_iter=8 stress="0.0027163299055462478 0.0033356353707748726 0.005552862768230069 0.0033356353707748726 0.006412035019202157 -0.003985682563953396 0.005552862768230069 -0.003985682563953396 0.00644323575204795" pbc="T T T"
Si       5.04279296       1.11749860       9.41634429
Si      -1.84649088       2.26850218       4.44426529
Si       5.64309718       5.51636304       5.26929807
Si      -0.79446339       1.36190372       4.47182921
Si       2.69499624       3.49922944      17.45492638
Si     -11.18276350       5.80919459      22.96010156
Si      -1.03747748       2.20046926       5.48374282
Si      -0.48356261       4.80760970      16.16570829
Si     -11.38139308       7.71539861      22.83581688
Si       5.33123312       3.35187404       7.08267923
Si       0.35574573       3.56388095       3.39381254
Si       4.92025163       4.97003965       4.81223161
Si       4.55006549       6.60461673       2.82666985
Si       3.34547862       2.89281923      12.27171356
Si      -3.16243431       3.34346527       3.37202206
Si     -12.67510704       6.86441625      22.73330419
Si      -2.47450261       1.88633044       5.49949469
Si       1.36811052       4.86074217      16.76070671
Si      -3.64491222       3.71722863      15.88381353
Si      -6.47986451       3.71050988      14.96879007
Si      -1.09822163       5.79924556      14.53098078
Si       9.69580151       0.25249345      -2.36494821
Si       6.27880440       2.93094048       6.35772173
Si       0.00180311       4.37201301       4.49087314
24
Lattice="13.172064021670478 0.10773214296413555 -7.860800641899043 -6.495793850247639 5.4305416716403565 6.348682999451529 -7.062391770841694 1.86354322374864 21.160728085891957" Properties=species:S:1:pos:R:3 unique_starting_index=90 config_type=initial n_minim_iter=9 stress="0.010978919442463436 -0.0014369494356107288 -0.0035563756725189534 -0.0014369494356107288 -0.0012817690402256645 -0.002335015681130622 -0.0035563756725189534 -0.002335015681130622 0.0030806885042432065" pbc="T T T"
Si       4.95615390       1.08688790       9.33774749
Si      -1.88807719       2.24827613       4.43741585
Si       5.55222434       5.49557745       5.20222065
Si      -0.83997508       1.35061934       4.46629530
Si       2.53446350       3.46144409      17.39484940
Si     -11.40878185       5.75565769      22.96303903
Si      -1.09761059       2.19019514       5.47745604
Si      -0.62811195       4.76283445      16.12076906
Si     -11.57592476       7.66141142      22.85998836
Si       5.27187261       3.31831425       7.00636149
Si       0.33712496       3.54889308       3.39030607
Si       4.88259783       4.93135449       4.72600837
Si       4.51212352       6.58333472       2.76586835
Si       3.23496101       2.85045359      12.19545197
Si      -3.20641394       3.32793743       3.36925724
Si     -12.88041454       6.82295600      22.77193704
Si      -2.53595944       1.89074859       5.50254721
Si       1.21491930       4.80382328      16.69178080
Si      -3.77692219       3.67734316      15.87744409
Si      -6.61013837       3.68626574      14.97928088
Si      -1.24344995       5.75441950      14.49042735
Si       9.70503770       0.25280082      -2.45117469
Si       6.24111158       2.90813993       6.27678508
Si      -0.03801089       4.34268556       4.47961050
24
Lattice="13.106561311203622 0.1261399550929135 -7.945270227320638 -6.444630913790932 5.452786961813495 6.43584704517182 -7.087636797999815 1.9711375850463257 21.282701948439623" Properties=species:S:1:pos:R:3 unique_starting_index=90 config_type=initial n_minim_iter=10 stress="0.006600055992810913 0.0033311235964428795 -0.0003919437737649997 0.0033311235964428795 -0.0008419726882385089 0.002666855217006687 -0.0003919437737649997 0.002666855217006687 0.006275369565173329" pbc="T T T"
Si       4.88850399       1.17762358       9.34580564
Si      -1.87521470       2.26376948       4.46872612
Si       5.44766228       5.59473641       5.26372039
Si      -0.86334758       1.38567611       4.51302289
Si       2.47019906       3.60235265      17.52581473
Si     -11.41928115       5.84794216      23.08328193
Si      -1.12486861       2.23224258       5.52209928
Si      -0.65868368       4.88221803      16.22537079
Si     -11.50189023       7.76360928      23.04843570
Si       5.23723062       3.39400034       7.02491208
Si       0.36730964       3.57642517       3.45953273
Si       4.87496243       4.97639354       4.69796170
Si       4.48467912       6.64977870       2.79632270
Si       3.17667074       2.94529807      12.23020227
Si      -3.19613005       3.34081141       3.38146518
Si     -12.83996122       6.92396647      22.97048792
Si      -2.54115593       1.94493967       5.54461330
Si       1.15832335       4.92711600      16.77888429
Si      -3.77177953       3.76246095      16.00486995
Si      -6.59155389       3.78089476      15.09099048
Si      -1.28226284       5.85347251      14.58593811
Si       9.62878707       0.30775939      -2.50856426
Si       6.22794910       3.00951705       6.28741005
Si      -0.02171174       4.36427603       4.54883518
24
Lattice="13.14825142804662 0.14739701576661138 -7.965893257748614 -6.470516558125189 5.476408960846435 6.428796009979233 -7.20542709007865 1.9737863350638463 21.17178235277147" Properties=species:S:1:pos:R:3 unique_starting_index=90 config_type=initial n_minim_iter=11 stress="0.01989628950118042 0.007185812853575966 0.0060671284019313 0.007185812853575966 0.017319515219704228 0.0023449972772146095 0.0060671284019313 0.0023449972772146095 0.004991590700353572" pbc="T T T"
Si       4.83590710       1.19559351       9.23794187
Si      -1.90521690       2.28354980       4.43377692
Si       5.35059871       5.65141144       5.21877021
Si      -0.90476340       1.40286023       4.50840540
Si       2.39579983       3.64366571      17.43742441
Si     -11.57503996       5.84536087      22.94433629
Si      -1.18036901       2.24872888       5.49034452
Si      -0.74212052       4.91560802      16.12100097
Si     -11.58111747       7.78350137      22.95372206
Si       5.21861196       3.41435370       6.93479880
Si       0.37344648       3.58808539       3.46619639
Si       4.88857566       4.99566008       4.57805249
Si       4.45481398       6.70556405       2.73830084
Si       3.11058890       2.95873874      12.10760150
Si      -3.21899120       3.33316346       3.35590895
Si     -12.95606992       6.94416969      22.89525202
Si      -2.58340378       1.97581608       5.51359728
Si       1.07612119       4.96838284      16.63772249
Si      -3.83752356       3.77145187      15.93683030
Si      -6.66094871       3.81236992      15.02830496
Si      -1.37199787       5.88380163      14.48545070
Si       9.63869168       0.33923584      -2.54780088
Si       6.23615535       3.05857034       6.20568436
Si      -0.02968725       4.37489398       4.54034086
24
Lattice="13.26680398685245 0.23425242026812398 -8.00851219082005 -6.530115102032463 5.404978451168911 6.401529144253177 -7.391424797621727 1.8283800426160424 21.05826219396465" Properties=species:S:1:pos:R:3 unique_starting_index=90 config_type=initial n_minim_iter=12 stress="0.03411968090929706 0.007824701673015117 0.012544845353596954 0.007824701673015117 0.02019205124970735 -0.00618638188331197 0.012544845353596954 -0.00618638188331197 0.008578239304678915" pbc="T T T"
Si       4.79246887       1.16068603       9.11490569
Si      -1.94048435       2.24911113       4.39938712
Si       5.27733185       5.63665281       5.13115784
Si      -0.95744991       1.38242537       4.49903365
Si       2.30901398       3.57135899      17.32097303
Si     -11.81951542       5.64048475      22.79217398
Si      -1.25036273       2.21140101       5.44923868
Si      -0.85319935       4.81493793      15.98644314
Si     -11.74734773       7.58229493      22.83065824
Si       5.22031429       3.37459708       6.81153406
Si       0.37498123       3.54533650       3.45192572
Si       4.92405377       4.96143261       4.41603781
Si       4.44897930       6.69603747       2.62947722
Si       3.04277925       2.88330259      11.96067947
Si      -3.27368514       3.28258291       3.30576124
Si     -13.16606977       6.75091867      22.79688209
Si      -2.65197167       1.94625957       5.46949604
Si       0.99441493       4.87089781      16.46708595
Si      -3.94588185       3.65291852      15.84882534
Si      -6.78265474       3.71286487      14.95857895
Si      -1.47996674       5.78148192      14.35164531
Si       9.72071415       0.39533857      -2.59558974
Si       6.26605423       3.05685117       6.09731982
Si      -0.03767725       4.32341293       4.50792694
24
Lattice="13.296285108647949 0.22119495799348401 -8.10412738801214 -6.552259866255547 5.481527665200588 6.475335926351786 -7.545910250945749 1.953629117497941 21.085688463715925" Properties=species:S:1:pos:R:3 unique_starting_index=90 config_type=initial n_minim_iter=13 stress="0.03093647185768174 0.012608635108542291 0.008894294993690927 0.012608635108542291 0.037381669872430405 -0.0009301899798195743 0.008894294993690927 -0.0009301899798195743 0.012478012603426203" pbc="T T T"
Si       4.70934105       1.24526534       9.05150916
Si      -1.97696126       2.30117788       4.41511138
Si       5.16200102       5.73570753       5.12953179
Si      -1.01229582       1.43360795       4.53171760
Si       2.19095884       3.75468884      17.34365299
Si     -12.01609127       5.77820082      22.82601285
Si      -1.32495016       2.26915841       5.47251208
Si      -0.98025269       4.95713330      15.99499507
Si     -11.85728719       7.74423756      22.92346105
Si       5.17759828       3.45298654       6.74756468
Si       0.35847232       3.57834738       3.49691294
Si       4.94352016       5.03675636       4.34035010
Si       4.39779590       6.79987421       2.59190514
Si       2.93851737       2.97790644      11.90569908
Si      -3.31201416       3.32008724       3.31863254
Si     -13.31863932       6.90971138      22.90594361
Si      -2.71501309       2.01363197       5.46500667
Si       0.91014281       5.01718134      16.44709654
Si      -4.04716384       3.76636614      15.88818808
Si      -6.87570780       3.83946054      15.02828869
Si      -1.58750470       5.92278198      14.35668548
Si       9.73060692       0.40886935      -2.66113920
Si       6.23707755       3.15763050       6.04944134
Si      -0.04896591       4.38254875       4.55276910
24
Lattice="13.431715877695957 0.30176378120462766 -8.130438845117286 -6.640328353547407 5.393345796173442 6.4053932956824395 -7.792875149549172 1.7517056132767013 20.8422227495631" Properties=species:S:1:pos:R:3 unique_starting_index=90 config_type=initial n_minim_iter=14 stress="0.02349948323333849 0.002464391519646486 0.00666714039188138 0.002464391519646486 0.02046317653132553 -0.011444603030833351 0.00666714039188138 -0.011444603030833351 -0.0031786863720923023" pbc="T T T"
Si       4.64261029       1.17320590       8.85851741
Si      -2.04924963       2.26415105       4.35199196
Si       5.11825934       5.65985107       4.93847506
Si      -1.08569301       1.39939693       4.49065584
Si       2.06498522       3.60766488      17.09278175
Si     -12.34026006       5.52745290      22.52768058
Si      -1.42396673       2.20896753       5.40225159
Si      -1.15237934       4.78447580      15.74033406
Si     -12.11501016       7.47611208      22.64422702
Si       5.14511491       3.36982716       6.54274897
Si       0.31733907       3.50513748       3.43551647
Si       4.97664985       5.00929900       4.16405826
Si       4.36711483       6.74916950       2.41473253
Si       2.82795929       2.85083432      11.66080082
Si      -3.38479157       3.27830111       3.26772115
Si     -13.61651694       6.64673885      22.65676658
Si      -2.80971364       1.95152762       5.36649329
Si       0.79718365       4.86191262      16.15185179
Si      -4.22509780       3.59788291      15.67646052
Si      -7.06145104       3.69029152      14.87602333
Si      -1.72845880       5.76906814      14.10163888
Si       9.82516525       0.42298449      -2.71635859
Si       6.21531093       3.10207659       5.87470476
Si      -0.08024466       4.31937410       4.47502855
24
Lattice="13.422968623036773 0.31081323765468416 -8.219552631951453 -6.627752947492485 5.423054651506811 6.485239975079076 -7.836096411799195 1.8202355877206864 21.000023674006975" Properties=species:S:1:pos:R:3 unique_starting_index=90 config_type=initial n_minim_iter=15 stress="0.03613058477227658 0.013773199338725053 0.0036944999376766754 0.013773199338725053 0.02389231667971787 -0.002558871953093806 0.0036944999376766754 -0.002558871953093806 -0.011938992569570983" pbc="T T T"
Si       4.60827489       1.23281649       8.91103841
Si      -2.06358960       2.28594888       4.40131331
Si       5.12347349       5.72752733       4.97080326
Si      -1.10479909       1.43624743       4.53367588
Si       2.03510707       3.72640588      17.21185227
Si     -12.38528541       5.59664899      22.72346082
Si      -1.45356954       2.23904732       5.45282271
Si      -1.19182505       4.85936588      15.86375119
Si     -12.13334475       7.55420372      22.84201222
Si       5.12233905       3.41891855       6.56744546
Si       0.30367443       3.52428945       3.47172824
Si       4.99734100       5.08324770       4.20142856
Si       4.35879633       6.80099526       2.41634360
Si       2.78868488       2.91614481      11.72892083
Si      -3.40716396       3.29840429       3.30925777
Si     -13.63183220       6.71950197      22.86027493
Si      -2.81868041       1.96512153       5.40410053
Si       0.78962466       4.96873688      16.25663332
Si      -4.26098001       3.66208079      15.79689430
Si      -7.09430732       3.73898772      15.01507232
Si      -1.74621818       5.84090071      14.20641845
Si       9.82072364       0.41802958      -2.75078176
Si       6.18289768       3.15916328       5.91006343
Si      -0.07819038       4.36171266       4.53018242
24
Lattice="13.325440914181959 0.2761286668721091 -8.384918989200886 -6.596020564998473 5.4774982748568295 6.615661426857345 -7.897847073796196 1.9229864662213967 21.264307350030595" Properties=species:S:1:pos:R:3 unique_starting_index=90 config_type=initial n_minim_iter=16 stress="0.003286790219511182 0.012910311602740117 -0.00528045573659277 0.012910311602740117 0.011188119181368432 0.014761355940827491 -0.00528045573659277 0.014761355940827491 -0.01197116879040455" pbc="T T T"
Si       4.49370738       1.28266628       8.99337318
Si      -2.11200177       2.30568511       4.48107284
Si       5.06457684       5.80455073       5.02328985
Si      -1.14016200       1.49661295       4.59353034
Si       1.92964999       3.86640184      17.38454138
Si     -12.44052935       5.72550939      23.03991360
Si      -1.50248925       2.29523266       5.53788963
Si      -1.26560359       4.95667022      16.04268092
Si     -12.16887949       7.66376114      23.16845214
Si       5.01797195       3.46202197       6.57596515
Si       0.25476773       3.54666993       3.51746384
Si       4.97460681       5.14192325       4.26091478
Si       4.27928898       6.82701045       2.40462442
Si       2.66875280       2.97895532      11.83095686
Si      -3.43819560       3.34097118       3.38494858
Si     -13.61630564       6.84932725      23.18900085
Si      -2.83712337       1.95790173       5.46678614
Si       0.67041039       5.08573337      16.42421613
Si      -4.33674470       3.75279539      15.98341545
Si      -7.14608481       3.79912943      15.24381690
Si      -1.80447795       5.90866581      14.39052189
Si       9.75833035       0.38426522      -2.82476517
Si       6.05082323       3.19658506       5.95782553
Si      -0.10095573       4.41452533       4.60977952
24
Lattice="13.316823044705636 0.22833469228181796 -8.453702471683119 -6.638606409012883 5.443756981649147 6.6262026618291365 -7.975073853933585 1.843182342715244 21.32516264672373" Properties=species:S:1:pos:R:3 unique_starting_index=90 config_type=initial n_minim_iter=17 stress="0.0014462206077885322 -0.007324021025400998 0.01096221425809204 -0.007324021025400998 0.010038011257973472 -0.0069662430404428075 0.01096221425809204 -0.0069662430404428075 0.015518465882678845" pbc="T T T"
Si       4.45961912       1.18070880       9.00699223
Si      -2.21039185       2.25390916       4.48569730
Si       5.00597748       5.71193864       5.02096375
Si      -1.17579047       1.50354588       4.58122628
Si       1.85585506       3.73931233      17.36885368
Si     -12.58679080       5.65668583      23.09618885
Si      -1.56738342       2.27758866       5.53102552
Si      -1.36062065       4.83652334      16.04671859
Si     -12.30676075       7.52198096      23.21240439
Si       4.93919375       3.37136208       6.50784022
Si       0.20172036       3.50735169       3.48999457
Si       4.96581723       5.08639066       4.25082676
Si       4.21360339       6.69890434       2.37744749
Si       2.58927461       2.86824617      11.82192789
Si      -3.48794646       3.36281893       3.39687162
Si     -13.68391340       6.75846186      23.23798704
Si      -2.85147634       1.93230680       5.48987257
Si       0.59423047       4.94947414      16.43303493
Si      -4.41835708       3.66394477      15.99877200
Si      -7.24346645       3.70907114      15.28203591
Si      -1.86225055       5.76314953      14.40909831
Si       9.77676949       0.27446524      -2.86107426
Si       5.97774965       3.08827891       5.92620788
Si      -0.14300463       4.36690539       4.60820977
24
Lattice="13.311287131840032 0.2089483664023175 -8.565716069756855 -6.661561440216433 5.436290993699804 6.687533348824889 -8.089788906109755 1.842570184469563 21.43487596136561" Properties=species:S:1:pos:R:3 unique_starting_index=90 config_type=initial n_minim_iter=18 stress="0.002672855842251434 -0.014475908694331768 0.030691887046402182 -0.014475908694331768 -0.0031640767287992888 0.0060953036711740545 0.030691887046402182 0.0060953036711740545 0.024676215102105645" pbc="T T T"
Si       4.42414764       1.16190759       9.00631232
Si      -2.29175490       2.21766993       4.49630090
Si       4.90632815       5.74223973       5.01434375
Si      -1.23224820       1.53327562       4.58876182
Si       1.76099415       3.73495754      17.39890499
Si     -12.76760940       5.66062732      23.24327956
Si      -1.63434979       2.29734792       5.55922926
Si      -1.47255093       4.79909263      16.11324165
Si     -12.44665056       7.46721126      23.35070089
Si       4.84961312       3.33361987       6.46419978
Si       0.16884791       3.51391103       3.48720021
Si       4.97190220       5.09461915       4.24145922
Si       4.16654462       6.63946081       2.35850606
Si       2.48869667       2.84525434      11.82407395
Si      -3.52452534       3.39753557       3.42951732
Si     -13.78080140       6.74601572      23.39081604
Si      -2.88894733       1.92203241       5.54922103
Si       0.49686670       4.92894265      16.45835936
Si      -4.50215207       3.65031415      16.06748469
Si      -7.34073140       3.69272817      15.37548415
Si      -1.92810850       5.72297226      14.46008098
Si       9.77895253       0.22527378      -2.92278373
Si       5.91464047       3.06089139       5.88063559
Si      -0.17036406       4.36050195       4.63609712
24
Lattice="13.384549544886196 0.21445670888220814 -8.666596264892254 -6.731789615455045 5.407808311734537 6.708632047057571 -8.322362039046512 1.7893838686322419 21.380260413792968" Properties=species:S:1:pos:R:3 unique_starting_index=90 config_type=initial n_minim_iter=19 stress="-0.01487137926119973 -0.02434031596048768 0.030768626931024935 -0.02434031596048768 -0.0043991118092968195 0.018821826577219813 0.030768626931024935 0.018821826577219813 0.018462113535216547" pbc="T T T"
Si       4.39268553       1.12253008       8.89869488
Si      -2.40430944       2.14608048       4.47313632
Si       4.77048477       5.74542140       4.93990248
Si      -1.34414445       1.57598253       4.55424516
Si       1.63062527       3.70663570      17.24365407
Si     -13.12965055       5.61109865      23.22156397
Si      -1.75480908       2.32216339       5.52933579
Si      -1.64548669       4.70348870      16.04335634
Si     -12.73774192       7.32227674      23.31948197
Si       4.75006105       3.27570124       6.30749400
Si       0.12521571       3.52064248       3.43671163
Si       5.00017367       5.10134958       4.17231394
Si       4.12820131       6.56093783       2.26651828
Si       2.34719325       2.79134869      11.68736676
Si      -3.60387330       3.42294098       3.44970521
Si     -14.01163949       6.67441571      23.37851288
Si      -2.96615415       1.91916685       5.57550521
Si       0.32914785       4.86731621      16.30758902
Si      -4.64992304       3.59643516      16.00057931
Si      -7.53750383       3.64405638      15.34518171
Si      -2.04334961       5.63630317      14.36315500
Si       9.85503556       0.17830556      -2.98917814
Si       5.85218348       3.02474684       5.72746370
Si      -0.21046151       4.34472489       4.62148853
24
Lattice="13.396901603866482 0.18801886246841634 -8.653220004624524 -6.741477829505145 5.426489546186477 6.710192830259709 -8.31822426663956 1.8330032026233634 21.368701819538327" Properties=species:S:1:pos:R:3 unique_starting_index=90 config_type=initial n_minim_iter=20 stress="-0.03998627660160823 -0.030518436842187614 0.02490555999710589 -0.030518436842187614 -0.008085964715589694 0.026442762459194077 0.02490555999710589 0.026442762459194077 0.005122887357983139" pbc="T T T"
Si       4.44335592       1.12838280       8.90203050
Si      -2.41142276       2.14852348       4.46339085
Si       4.75505011       5.75540231       4.95062530
Si      -1.36131872       1.60083370       4.54370065
Si       1.64533561       3.72741395      17.22613171
Si     -13.16129793       5.67189710      23.22941031
Si      -1.76030647       2.35138662       5.52707683
Si      -1.63439203       4.72009673      16.05503315
Si     -12.77105323       7.35128527      23.31568450
Si       4.75260408       3.27286238       6.30609638
Si       0.12438137       3.54321463       3.42522957
Si       5.02291437       5.12282212       4.20344482
Si       4.13498912       6.54272525       2.27951338
Si       2.35863823       2.80905556      11.68612065
Si      -3.61444906       3.43822692       3.45945449
Si     -14.02134064       6.73034530      23.37226827
Si      -2.97452590       1.93990044       5.59789493
Si       0.33735916       4.88766675      16.30851126
Si      -4.62874606       3.63206115      15.99138992
Si      -7.55011329       3.67441254      15.33108861
Si      -2.01700794       5.65493567      14.36261108
Si       9.89376130       0.16838664      -2.97155735
Si       5.86185592       3.02386692       5.72213291
Si      -0.20763221       4.36210133       4.62815485
24
Lattice="13.538833554040465 0.21651382133667413 -8.622920162147553 -6.827423462660432 5.319745228264391 6.639857524756719 -8.41510059914842 1.66112148652908 21.244266292730302" Properties=species:S:1:pos:R:3 unique_starting_index=90 config_type=initial n_minim_iter=21 stress="-0.005880958207220269 -0.027498204772913797 0.026471854253146094 -0.027498204772913797 -0.015275019384503166 0.007219209253310225 0.026471854253146094 0.007219209253310225 0.026722292420690383" pbc="T T T"
Si       4.56287185       1.02368618       8.83012626
Si      -2.43702641       2.08942476       4.41012870
Si       4.77753256       5.62715782       4.90139613
Si      -1.40449180       1.56085255       4.49224709
Si       1.63695217       3.50924606      17.07649260
Si     -13.35099662       5.46020955      23.12483071
Si      -1.79092504       2.29947056       5.46363960
Si      -1.64891316       4.50523280      15.95323466
Si     -12.99043411       7.06471952      23.15381712
Si       4.78412190       3.14296727       6.24056813
Si       0.11974080       3.50247756       3.34494319
Si       5.05993953       5.03715261       4.14442429
Si       4.19358823       6.41689645       2.19578651
Si       2.37572939       2.67250515      11.59337027
Si      -3.65829708       3.36448304       3.42875071
Si     -14.21558501       6.50078023      23.21477667
Si      -3.03972900       1.90630119       5.58395713
Si       0.30214846       4.66682708      16.17846271
Si      -4.64072747       3.48291482      15.86774001
Si      -7.65635827       3.52138630      15.20211269
Si      -2.00908328       5.46349804      14.23832599
Si       9.99741680       0.17300659      -2.95417448
Si       5.91266864       2.90436468       5.64359725
Si      -0.21575783       4.28419770       4.56284186
