20
Lattice="8.270364433290368 1.0093067094920825 1.050060788489804 0.6938218986621699 8.30278501866674 1.050060788489793 0.6938218986621765 0.720749538674564 8.337828663880128" Properties=species:S:1:pos:R:3 unique_starting_index=58 config_type=initial n_minim_iter=1 energy=-3436.2854245721287 free_energy=-3436.2854245721287 pbc="T T T"
Si       6.21296501       8.62397796       8.67196603
Si       8.38127708       8.40656108       6.87465273
Si       8.08149607       6.52525801       8.96032109
Si       1.57651215       1.33769918       3.56329751
Si       3.44504321       1.70886166       1.47762915
Si       1.27673114       3.49616592       1.76598421
Si       6.19172301       8.55963326       1.01880440
Si       8.31778743       0.76032819       6.54820824
Si       0.44321892       6.21309223       8.59323919
Si       9.21478930       1.69214323       3.88974200
Si       3.46628521       9.35348552       1.84471105
Si       1.34022080       3.51984137       9.41914584
Si       7.42373224       1.11666896       6.15004400
Si       0.83332750       5.85004971       7.69832935
Si       5.81409675       7.65054777       1.35911331
Si       3.84391148       8.97747624       2.73962089
Si       2.23427598       3.93179203       9.07883693
Si       8.82468073       2.57198909       4.28790624
Si       2.67706957       2.78096824       2.89325898
Si       6.98093865       7.25187303       7.54469126
20
Lattice="8.270309708962403 1.0093214364390544 1.0500761100857123 0.6938386976388734 8.302730894463098 1.0500761100857012 0.6938386976388801 0.720766989629532 8.337775188232477" Properties=species:S:1:pos:R:3 unique_starting_index=58 config_type=initial n_minim_iter=2 stress="-8.806883092431399e-05 4.433060496544557e-05 4.6120598983575154e-05 4.433060496544557e-05 -8.469211551284501e-05 4.791056682817797e-05 4.6120598983575154e-05 4.791056682817797e-05 -8.089810400096006e-05" pbc="T T T"
Si       6.21296024       8.62395564       8.67194382
Si       8.38125495       8.40653911       6.87464624
Si       8.08147496       6.52525243       8.96029790
Si       1.57651214       1.33770018       3.56328117
Si       3.44502686       1.70886102       1.47762950
Si       1.27673214       3.49614959       1.76598359
Si       6.19170180       8.55959270       1.01883243
Si       8.31774771       0.76035710       6.54818663
Si       0.44324932       6.21307216       8.59319977
Si       9.21473777       1.69215988       3.88974078
Si       3.46628530       9.35343396       1.84472764
Si       1.34023939       3.51984216       9.41909498
Si       7.42369433       1.11669533       6.15002259
Si       0.83335530       5.85002978       7.69829165
Si       5.81407577       7.65050903       1.35913882
Si       3.84391133       8.97742728       2.73963576
Si       2.23429277       3.93179253       9.07878859
Si       8.82463180       2.57200402       4.28790482
Si       2.67706290       2.78096130       2.89325177
Si       6.98092420       7.25185802       7.54467564
20
Lattice="8.270246965916867 1.009198683184261 1.0499484002644008 0.6937184211902993 8.302663525128493 1.0499484002643897 0.6937184211903062 0.720642045180545 8.33770281896848" Properties=species:S:1:pos:R:3 unique_starting_index=58 config_type=initial n_minim_iter=3 stress="-1.8963886868464485e-05 -2.4539215024673126e-05 -2.553006657086161e-05 -2.4539215024673126e-05 -2.083306834638736e-05 -2.652090361473543e-05 -2.553006657086161e-05 -2.652090361473543e-05 -2.2933244161091954e-05" pbc="T T T"
Si       6.21268520       8.62377261       8.67170374
Si       8.38108253       8.40631037       6.87435515
Si       8.08125295       6.52496873       8.96010553
Si       1.57643086       1.33756612       3.56324447
Si       3.44499860       1.70877860       1.47749409
Si       1.27660127       3.49611634       1.76589588
Si       6.19158412       8.55952835       1.01859351
Si       8.31768788       0.76012312       6.54805722
Si       0.44301779       6.21294558       8.59312601
Si       9.21466601       1.69191351       3.88954240
Si       3.46609968       9.35335508       1.84447361
Si       1.33999593       3.51964714       9.41900611
Si       7.42351698       1.11655628       6.14986811
Si       0.83322309       5.84988264       7.69810317
Si       5.81393377       7.65032615       1.35899376
Si       3.84375004       8.97724992       2.73949644
Si       2.23416682       3.93162632       9.07860586
Si       8.82446071       2.57187146       4.28773151
Si       2.67695868       2.78085304       2.89313913
Si       6.98072512       7.25165122       7.54446049
20
Lattice="8.270373339927092 1.0093404328007298 1.0500958734879888 0.6938552585704892 8.302795202292844 1.0500958734879777 0.6938552585704961 0.7207841933007401 8.337840227626192" Properties=species:S:1:pos:R:3 unique_starting_index=58 config_type=initial n_minim_iter=4 stress="3.095581499702668e-05 3.798361762123049e-05 3.9517331135982154e-05 3.798361762123049e-05 3.384907275196563e-05 4.1051022231886156e-05 3.9517331135982154e-05 4.1051022231886156e-05 3.709988068573634e-05" pbc="T T T"
Si       6.21299122       8.62412230       8.67204901
Si       8.38142032       8.40664274       6.87468767
Si       8.08157223       6.52528713       8.96046860
Si       1.57651162       1.33763150       3.56334431
Si       3.44509263       1.70886301       1.47756338
Si       1.27666353       3.49621280       1.76598296
Si       6.19178769       8.55974728       1.01882353
Si       8.31789890       0.76034457       6.54827791
Si       0.44323105       6.21315742       8.59335388
Si       9.21485280       1.69210978       3.88975406
Si       3.46629617       9.35354948       1.84467810
Si       1.34018495       3.51985096       9.41920845
Si       7.42371565       1.11677590       6.15007361
Si       0.83343499       5.85007980       7.69831803
Si       5.81412272       7.65053216       1.35922134
Si       3.84396113       8.97744625       2.73971395
Si       2.23436820       3.93184524       9.07881064
Si       8.82464886       2.57208015       4.28795836
Si       2.67706226       2.78096064       2.89325108
Si       6.98102159       7.25195919       7.54478090
20
Lattice="8.270324709320787 1.0092638205682416 1.0500161677845605 0.6937805526251735 8.302743691208875 1.0500161677845494 0.6937805526251802 0.7207065879733119 8.337785603418322" Properties=species:S:1:pos:R:3 unique_starting_index=58 config_type=initial n_minim_iter=5 stress="-9.099036739393998e-06 -1.0680222512745448e-05 -1.1111471643316684e-05 -1.0680222512745448e-05 -9.912562123907806e-06 -1.1542714455571848e-05 -1.1111471643316684e-05 -1.1542714455571848e-05 -1.0826623354615924e-05" pbc="T T T"
Si       6.21281639       8.62405633       8.67191767
Si       8.38136106       8.40651852       6.87450540
Si       8.08145035       6.52510753       8.96039749
Si       1.57643546       1.33748972       3.56331254
Si       3.44506942       1.70878591       1.47742045
Si       1.27652475       3.49618429       1.76590027
Si       6.19168252       8.55966388       1.01870388
Si       8.31781957       0.76022931       6.54816500
Si       0.44311889       6.21304790       8.59326581
Si       9.21476692       1.69198771       3.88965294
Si       3.46620329       9.35346000       1.84455213
Si       1.34006624       3.51975350       9.41911405
Si       7.42367211       1.11668698       6.14997183
Si       0.83334780       5.84997995       7.69826714
Si       5.81402626       7.65048491       1.35912847
Si       3.84385954       8.97733145       2.73955080
Si       2.23421370       3.93173769       9.07868947
Si       8.82453801       2.57192132       4.28784611
Si       2.67697489       2.78086988       2.89315665
Si       6.98091092       7.25184422       7.54466129
20
Lattice="8.270642904416086 1.0095688070001947 1.0503334690471045 0.6940732082324392 8.303073262958096 1.0503334690470933 0.6940732082324459 0.721010601718531 8.338127470749049" Properties=species:S:1:pos:R:3 unique_starting_index=58 config_type=initial n_minim_iter=6 stress="9.142727866772336e-08 9.039609221721309e-07 9.404613020196143e-07 9.039609221721309e-07 1.6028306466329255e-07 9.769611646520714e-07 9.404613020196143e-07 9.769611646520714e-07 2.3764808336815845e-07" pbc="T T T"
Si       6.21357437       8.62501305       8.67274163
Si       8.38228823       8.40731043       6.87533122
Si       8.08220640       6.52589486       8.96138605
Si       1.57658292       1.33747165       3.56346319
Si       3.44521495       1.70893901       1.47740836
Si       1.27650109       3.49632902       1.76605278
Si       6.19222547       8.56016367       1.01918092
Si       8.31829833       0.76068375       6.54874501
Si       0.44355479       6.21360784       8.59378408
Si       9.21523453       1.69243058       3.89004940
Si       3.46656385       9.35394168       1.84501033
Si       1.34049099       3.52013049       9.41961349
Si       7.42419143       1.11711414       6.15053251
Si       0.83375488       5.85051902       7.69882411
Si       5.81454945       7.65102453       1.35957747
Si       3.84423987       8.97784271       2.73997030
Si       2.23459789       3.93213292       9.07921694
Si       8.82503443       2.57232469       4.28826190
Si       2.67710620       2.78100629       2.89329857
Si       6.98168311       7.25264638       7.54549584
20
Lattice="8.271465105454874 1.0103311639849806 1.051126608703292 0.6948037215795236 8.303923882126801 1.051126608703281 0.6948037215795302 0.7217694667225357 8.339008803484218" Properties=species:S:1:pos:R:3 unique_starting_index=58 config_type=initial n_minim_iter=7 stress="6.05038761539153e-07 3.2419367396088128e-06 3.372840584493824e-06 3.2419367396088128e-06 8.519809645163862e-07 3.503742535254341e-06 3.372840584493824e-06 3.503742535254341e-06 1.1294404202759564e-06" pbc="T T T"
Si       6.21567100       8.62740506       8.67485486
Si       8.38459872       8.40933551       6.87759926
Si       8.08414208       6.52806673       8.96385980
Si       1.57693047       1.33745761       3.56366276
Si       3.44540154       1.70929392       1.47740222
Si       1.27647383       3.49651471       1.76640716
Si       6.19364740       8.56168061       1.02056566
Si       8.31976005       0.76200891       6.55027727
Si       0.44482336       6.21507912       8.59535461
Si       9.21624919       1.69329132       3.89098475
Si       3.46742514       9.35498988       1.84590741
Si       1.34131249       3.52102370       9.42069636
Si       7.42558318       1.11811417       6.15179631
Si       0.83470122       5.85172530       7.70030179
Si       5.81571884       7.65246183       1.36062672
Si       3.84535370       8.97922299       2.74096023
Si       2.23548936       3.93328151       9.08063530
Si       8.82637132       2.57326773       4.28946571
Si       2.67731789       2.78122619       2.89352734
Si       6.98375466       7.25479833       7.54773468
20
Lattice="8.271494275271518 1.010335166544656 1.0511307728794836 0.6948066110943415 8.30395318314029 1.0511307728794725 0.6948066110943483 0.72177246838114 8.339038246306774" Properties=species:S:1:pos:R:3 unique_starting_index=58 config_type=initial n_minim_iter=8 stress="-1.6500047395439093e-06 -9.145420388580109e-07 -9.514696918065403e-07 -9.145420388580109e-07 -1.719666507455105e-06 -9.883967911718285e-07 -9.514696918065403e-07 -9.883967911718285e-07 -1.797937103034961e-06" pbc="T T T"
Si       6.21576883       8.62749801       8.67488385
Si       8.38468787       8.40936047       6.87770162
Si       8.08416363       6.52816545       8.96395382
Si       1.57694386       1.33740388       3.56359817
Si       3.44533866       1.70930493       1.47734597
Si       1.27641962       3.49644972       1.76641594
Si       6.19371410       8.56174922       1.02060567
Si       8.31982608       0.76204615       6.55034806
Si       0.44485805       6.21514719       8.59542476
Si       9.21624944       1.69326023       3.89095173
Si       3.46739339       9.35498892       1.84587503
Si       1.34128141       3.52099074       9.42069412
Si       7.42566322       1.11817067       6.15185624
Si       0.83475463       5.85178193       7.70038623
Si       5.81577340       7.65254400       1.36068554
Si       3.84533409       8.97920377       2.74091357
Si       2.23544427       3.93326018       9.08061425
Si       8.82635286       2.57322191       4.28944355
Si       2.67730587       2.78121371       2.89351436
Si       6.98380162       7.25484711       7.54778543
