12
Lattice="5.888725625039105 1.5692562735784665 -1.699472703394009 0.46198165190684093 8.01628416723132 0.4478581801419625 -2.8921916142943513 -2.2692354391522214 11.381539791691251" Properties=species:S:1:pos:R:3 unique_starting_index=44 config_type=initial n_minim_iter=1 energy=-2129.532589987434 free_energy=-2129.532589987434 pbc="T T T"
Si      -1.40969715       1.81503086       9.32555577
Si      -0.38072465       4.73932724       3.89591547
Si      -1.59215446       4.44625916      10.07277646
Si       3.24836569       3.46709971       7.46569733
Si       4.01272984       6.08180034       7.47280293
Si       4.04935317       3.44211353       6.70169231
Si       6.45080638       5.66360574      -2.92124380
Si       1.65180442       3.99997555      -1.05273117
Si      -2.17591837      -0.84968956       9.92699840
Si       5.65480447       4.21390556       1.99679808
Si      -2.49015891      -0.77322329       8.90832151
Si      -1.45382272      -0.85573702       9.14293801
12
Lattice="5.888170547945932 1.5684769313242868 -1.702373307311287 0.46070640063395885 8.016196730189042 0.44795003664589045 -2.8965690357260776 -2.268531190064458 11.384462552416096" Properties=species:S:1:pos:R:3 unique_starting_index=44 config_type=initial n_minim_iter=2 stress="8.905128050616434e-05 6.493517672270418e-05 -0.00046586533714877953 6.493517672270418e-05 -0.0010779065059519587 -7.365944807498268e-05 -0.00046586533714877953 -7.365944807498268e-05 4.482410113994401e-05" pbc="T T T"
Si      -1.41411818       1.81578787       9.32756585
Si      -0.38288071       4.73953740       3.89675578
Si      -1.59737624       4.44626830      10.07478120
Si       3.24404750       3.46717933       7.46523564
Si       4.00765566       6.08155641       7.47271796
Si       4.04491674       3.44209277       6.70065760
Si       6.45027940       5.66265171      -2.92437131
Si       1.65153724       3.99979083      -1.05311817
Si      -2.17994930      -0.84899825       9.92937013
Si       5.65256988       4.21350021       1.99460106
Si      -2.49375115      -0.77373771       8.91073494
Si      -1.45739769      -0.85515345       9.14488400
12
Lattice="5.888075427557267 1.568509405906362 -1.7023292792221953 0.460639793522745 8.016645379459696 0.4479945885449229 -2.896435787854422 -2.268578828648169 11.384466895906934" Properties=species:S:1:pos:R:3 unique_starting_index=44 config_type=initial n_minim_iter=3 stress="0.00012388811351489432 0.00023437346652571843 -0.00039476838302947217 0.00023437346652571843 0.001898190068589915 8.786177272784039e-05 -0.00039476838302947217 8.786177272784039e-05 0.00018539713564471184" pbc="T T T"
Si      -1.41406449       1.81595715       9.32760593
Si      -0.38287158       4.73983421       3.89678594
Si      -1.59734215       4.44657753      10.07483210
Si       3.24404925       3.46738131       7.46527760
Si       4.00758994       6.08189648       7.47280378
Si       4.04486521       3.44230606       6.70070581
Si       6.45013542       5.66288147      -2.92430409
Si       1.65148692       3.99999868      -1.05306662
Si      -2.17983740      -0.84897812       9.92937072
Si       5.65251351       4.21372884       1.99466315
Si      -2.49366782      -0.77376644       8.91074165
Si      -1.45729248      -0.85512647       9.14490950
12
Lattice="5.8866292715320085 1.5675767192628869 -1.7011588474262764 0.4594735330505001 8.016438906283645 0.44824689857747846 -2.8935452793660694 -2.26785962106021 11.383601727819595" Properties=species:S:1:pos:R:3 unique_starting_index=44 config_type=initial n_minim_iter=4 stress="-0.000828822095001939 0.00010636848296251133 0.0007300000193705174 0.00010636848296251133 -3.768288200500649e-05 -2.4653416967778354e-06 0.0007300000193705174 -2.4653416967778354e-06 0.0006965204997293437" pbc="T T T"
Si      -1.41257101       1.81641619       9.32734345
Si      -0.38258465       4.73999842       3.89668746
Si      -1.59611721       4.44700140      10.07457836
Si       3.24463941       3.46688005       7.46548355
Si       4.00716912       6.08124707       7.47345903
Si       4.04467624       3.44202004       6.70115101
Si       6.44774836       5.66143452      -2.92289286
Si       1.65057064       3.99967013      -1.05238612
Si      -2.17739732      -0.84843494       9.92854117
Si       5.65181482       4.21323142       1.99568441
Si      -2.49173208      -0.77370027       8.91004836
Si      -1.45505293      -0.85444815       9.14457357
12
Lattice="5.888425524104073 1.5662504469399703 -1.7016449967466643 0.45771748237942433 8.016573457462915 0.4481821200963362 -2.896331217019376 -2.2669565718308666 11.379323991283098" Properties=species:S:1:pos:R:3 unique_starting_index=44 config_type=initial n_minim_iter=5 stress="0.0005565548033257224 0.0002134820073611392 0.00021585006076588689 0.0002134820073611392 3.2927520140790605e-05 -6.035447757694885e-05 0.00021585006076588689 -6.035447757694885e-05 -0.0008500250289362451" pbc="T T T"
Si      -1.41571346       1.81712732       9.32396220
Si      -0.38425957       4.74051153       3.89518462
Si      -1.60007840       4.44789433      10.07104946
Si       3.24347577       3.46605309       7.46143289
Si       4.00502594       6.08055695       7.46955492
Si       4.04340411       3.44162710       6.69738312
Si       6.44892835       5.65951521      -2.92291726
Si       1.65054831       3.99943425      -1.05197693
Si      -2.17981397      -0.84780008       9.92457784
Si       5.65284331       4.21273798       1.99363194
Si      -2.49447388      -0.77329598       8.90678515
Si      -1.45701780      -0.85356939       9.14118708
12
Lattice="5.8876812829092815 1.5634876312189663 -1.7045273705566464 0.45382048229762667 8.016715655286802 0.4488040877039538 -2.8999235574295015 -2.2647221662577874 11.383287534003031" Properties=species:S:1:pos:R:3 unique_starting_index=44 config_type=initial n_minim_iter=6 stress="0.0006233154238352665 -0.000376976336965797 -0.00020699612495029892 -0.000376976336965797 5.7883576911315555e-05 -0.00014429114869732123 -0.00020699612495029892 -0.00014429114869732123 0.0009283009008212629" pbc="T T T"
Si      -1.42090539       1.81885611       9.32722458
Si      -0.38751005       4.74153910       3.89665272
Si      -1.60672217       4.44965771      10.07519035
Si       3.23828212       3.46447734       7.46185925
Si       3.99793481       6.07947454       7.47009355
Si       4.03808721       3.44065821       6.69734245
Si       6.44667529       5.65580103      -2.92596046
Si       1.64909763       3.99898737      -1.05223172
Si      -2.18340391      -0.84625522       9.92799886
Si       5.65042385       4.21151102       1.99183301
Si      -2.49794601      -0.77142234       8.90997485
Si      -1.46046428      -0.85188599       9.14420350
12
Lattice="5.885785693448137 1.5627311964120691 -1.7048385847396537 0.45277838085122135 8.016877749511654 0.44950820117383994 -2.9003429675726777 -2.263243094383533 11.381048257997561" Properties=species:S:1:pos:R:3 unique_starting_index=44 config_type=initial n_minim_iter=7 stress="-0.0011625874623908928 -0.00012415384433069269 -0.0003942969076674645 -0.00012415384433069269 0.00012579406126295725 0.00010676504387542914 -0.0003942969076674645 0.00010676504387542914 -0.000526086552444718" pbc="T T T"
Si      -1.42216080       1.82026702       9.32575381
Si      -0.38803512       4.74232424       3.89633100
Si      -1.60834188       4.45087819      10.07389107
Si       3.23574386       3.46439509       7.46002772
Si       3.99469370       6.07993490       7.46864248
Si       4.03533151       3.44106951       6.69563001
Si       6.44428791       5.65453042      -2.92563899
Si       1.64830966       3.99904010      -1.05170656
Si      -2.18399354      -0.84525016       9.92618173
Si       5.64855501       4.21190388       1.99090760
Si      -2.49844274      -0.77027735       8.90829165
Si      -1.46137521      -0.85065164       9.14246529
12
Lattice="5.8868414629013985 1.562014336774502 -1.7044158907182798 0.4521996959843823 8.016796612537183 0.45041110261966016 -2.9002052917288554 -2.261730755330528 11.380930479264237" Properties=species:S:1:pos:R:3 unique_starting_index=44 config_type=initial n_minim_iter=8 stress="6.740197733539577e-05 0.0007811836572739183 -9.348380017714277e-05 0.0007811836572739183 -6.932805647309765e-05 6.491334769974648e-05 -9.348380017714277e-05 6.491334769974648e-05 0.00032994094514773533" pbc="T T T"
Si      -1.42239670       1.82184919       9.32634956
Si      -0.38755246       4.74320211       3.89681384
Si      -1.60903892       4.45170748      10.07457374
Si       3.23625886       3.46383673       7.46052708
Si       3.99517671       6.08028891       7.46985008
Si       4.03618647       3.44144335       6.69614327
Si       6.44488467       5.65297326      -2.92471092
Si       1.64834655       3.99925782      -1.05107099
Si      -2.18395825      -0.84459086       9.92649742
Si       5.65093917       4.21289214       1.99136118
Si      -2.49880966      -0.76936918       8.90809047
Si      -1.46165080      -0.84939116       9.14266129
12
Lattice="5.8863155382919174 1.558266938258304 -1.7031362181939422 0.4472013655317643 8.017089168476346 0.45084380490914583 -2.8973774762307873 -2.2594172620189714 11.378396308206112" Properties=species:S:1:pos:R:3 unique_starting_index=44 config_type=initial n_minim_iter=9 stress="1.5927789160631362e-05 -0.000572165938734927 0.00023329510801525934 -0.000572165938734927 0.0001729189336219692 1.4402683221955326e-05 0.00023329510801525934 1.4402683221955326e-05 -0.00022380660654665067" pbc="T T T"
Si      -1.42249837       1.82351481       9.32471517
Si      -0.38918437       4.74454572       3.89624179
Si      -1.61094734       4.45327591      10.07280241
Si       3.23527083       3.46179551       7.45988537
Si       3.99279181       6.07841781       7.46963261
Si       4.03562933       3.43946426       6.69577888
Si       6.44146540       5.64862648      -2.92290051
Si       1.64581727       3.99871610      -1.05043188
Si      -2.18239480      -0.84318187       9.92473326
Si       5.65074891       4.21106667       1.99172506
Si      -2.49761098      -0.76772904       8.90603726
Si      -1.46053931      -0.84798655       9.14092108
12
Lattice="5.886112563901345 1.5548498442855032 -1.7024641432625585 0.4428341016565762 8.017295374577893 0.45189774594754356 -2.8952852895197663 -2.256551349704252 11.378883038725379" Properties=species:S:1:pos:R:3 unique_starting_index=44 config_type=initial n_minim_iter=10 stress="-2.4024937867275597e-05 -0.00012657546143836349 0.0001303909969565864 -0.00012657546143836349 6.72154605397137e-05 0.0005166436918581046 0.0001303909969565864 0.0005166436918581046 1.2880276499348476e-05" pbc="T T T"
Si      -1.42323646       1.82525386       9.32532419
Si      -0.38914382       4.74710533       3.89685889
Si      -1.61325855       4.45543219      10.07435831
Si       3.23384528       3.45988803       7.46160354
Si       3.99045084       6.07634210       7.47131413
Si       4.03565941       3.43808573       6.69769802
Si       6.43868988       5.64352703      -2.92188751
Si       1.64328794       3.99817752      -1.05004612
Si      -2.18237783      -0.84157746       9.92617644
Si       5.65342933       4.21205483       1.99198492
Si      -2.49743312      -0.76688445       8.90678268
Si      -1.46112080      -0.84526670       9.14162151
12
Lattice="5.885844436406422 1.5549989381419558 -1.7031957034696767 0.44202199275355936 8.017536937534842 0.44886922667415746 -2.8949871159296743 -2.260744564748037 11.380686402803484" Properties=species:S:1:pos:R:3 unique_starting_index=44 config_type=initial n_minim_iter=11 stress="-0.00027258859780761226 -6.19027167941273e-05 5.962097220120183e-05 -6.19027167941273e-05 0.00018322704819879286 -0.0009212135299468731 5.962097220120183e-05 -0.0009212135299468731 -6.820966675678845e-05" pbc="T T T"
Si      -1.42354691       1.82174153       9.32558753
Si      -0.38864021       4.74674185       3.89523557
Si      -1.61390652       4.45183518      10.07343427
Si       3.23338546       3.45647028       7.46097972
Si       3.98977160       6.07324732       7.46967843
Si       4.03521132       3.43513097       6.69693302
Si       6.43802897       5.64378972      -2.92442177
Si       1.64253837       3.99852318      -1.05176519
Si      -2.18296265      -0.84538226       9.92740861
Si       5.65456003       4.21244845       1.99012456
Si      -2.49781219      -0.77042366       8.90822518
Si      -1.46156326      -0.84865158       9.14271351
12
Lattice="5.886471605276784 1.5539406947319692 -1.7033450537424342 0.4410816593426712 8.017531482033126 0.4504664283146676 -2.8950998672689683 -2.258271850679654 11.383233478450286" Properties=species:S:1:pos:R:3 unique_starting_index=44 config_type=initial n_minim_iter=12 stress="-5.444401174548121e-05 -0.00016165844971947552 1.5052049363669273e-05 -0.00016165844971947552 -7.205705443592985e-06 0.00022842452053240504 1.5052049363669273e-05 0.00022842452053240504 0.00011101406812169568" pbc="T T T"
Si      -1.42430596       1.82320202       9.32882189
Si      -0.38740427       4.74925335       3.89686815
Si      -1.61514866       4.45371041      10.07670045
Si       3.23354320       3.45666371       7.46368870
Si       3.98958388       6.07352464       7.47298718
Si       4.03500209       3.43508322       6.69926748
Si       6.43827705       5.64188636      -2.92446844
Si       1.64162380       3.99785321      -1.05142765
Si      -2.18459236      -0.84330820       9.92977954
Si       5.65804587       4.21490733       1.99064017
Si      -2.49922291      -0.76898142       8.91133591
Si      -1.46254583      -0.84731196       9.14498370
12
Lattice="5.887333794603519 1.5550025535284173 -1.7036625234432796 0.4422177796305472 8.01754816770018 0.44925910597237734 -2.895554837134494 -2.260453750573726 11.384653545732936" Properties=species:S:1:pos:R:3 unique_starting_index=44 config_type=initial n_minim_iter=13 stress="0.00014351035507656937 -0.00010575586979068535 7.049127524436368e-05 -0.00010575586979068535 -0.0001142203614361539 3.433117999098667e-06 7.049127524436368e-05 3.433117999098667e-06 -5.9771102659372554e-05" pbc="T T T"
Si      -1.42457228       1.82126984       9.32907224
Si      -0.38489710       4.75072349       3.89622916
Si      -1.61514842       4.45124522      10.07723458
Si       3.23489225       3.45565231       7.46389238
Si       3.99068148       6.07226004       7.47280396
Si       4.03556652       3.43357034       6.70001817
Si       6.43937644       5.64353001      -2.92577338
Si       1.64192484       3.99783507      -1.05192369
Si      -2.18566473      -0.84575355       9.93059148
Si       5.66250345       4.21804230       1.98950169
Si      -2.50065779      -0.77107851       8.91285852
Si      -1.46346488      -0.84975075       9.14628654
12
Lattice="5.887428179395616 1.5575430341365417 -1.7055268258406215 0.44514320082779324 8.01743582977778 0.4477744338998143 -2.8985283894789418 -2.2635734421576483 11.387507683940157" Properties=species:S:1:pos:R:3 unique_starting_index=44 config_type=initial n_minim_iter=14 stress="0.00011561862938277504 -6.811119854529763e-05 -0.00020192981953860093 -6.811119854529763e-05 -0.0002662589583687468 8.004002393024337e-05 -0.00020192981953860093 8.004002393024337e-05 -2.2887264709211876e-05" pbc="T T T"
Si      -1.42575706       1.81765416       9.33070599
Si      -0.38164004       4.75293390       3.89573163
Si      -1.61647182       4.44842343      10.07871053
Si       3.23387157       3.45537001       7.46371937
Si       3.99008002       6.07214046       7.47225014
Si       4.03412831       3.43213719       6.69969976
Si       6.44023928       5.64678160      -2.92854641
Si       1.64297751       3.99746751      -1.05326781
Si      -2.18801346      -0.84883025       9.93286274
Si       5.66674698       4.22287667       1.98689288
Si      -2.50353181      -0.77429766       8.91474434
Si      -1.46657467      -0.85288055       9.14862105
12
Lattice="5.887460105941661 1.5596812325777956 -1.7062741794837002 0.4475380270781648 8.01736993162308 0.44611428147363225 -2.899791291210864 -2.2667375822952303 11.38812447527859" Properties=species:S:1:pos:R:3 unique_starting_index=44 config_type=initial n_minim_iter=15 stress="0.0001659986785400578 -2.6361523142629433e-05 -0.0002265576370297101 -2.6361523142629433e-05 -0.00030930878623362297 9.171788371356254e-06 -0.0002265576370297101 9.171788371356254e-06 -0.00019521031483040282" pbc="T T T"
Si      -1.42574500       1.81460642       9.33067597
Si      -0.37897129       4.75431845       3.89456838
Si      -1.61641055       4.44516786      10.07800794
Si       3.23364101       3.45487782       7.46280179
Si       3.99052587       6.07077905       7.47080099
Si       4.03386213       3.43107315       6.69861055
Si       6.44081438       5.64936807      -2.92994057
Si       1.64374883       3.99741411      -1.05422148
Si      -2.18877839      -0.85130374       9.93335241
Si       5.66986495       4.22617815       1.98500253
Si      -2.50465237      -0.77695789       8.91479460
Si      -1.46773280      -0.85582801       9.14898387
12
Lattice="5.88727738518501 1.5622521981945499 -1.7060462600913153 0.4504124524809246 8.01726685536343 0.44384163335843724 -2.8995635668366195 -2.2709036104598823 11.386662274530657" Properties=species:S:1:pos:R:3 unique_starting_index=44 config_type=initial n_minim_iter=16 stress="9.669550253379892e-05 3.6584419136025685e-05 -0.00029736234675745924 3.6584419136025685e-05 -0.00025029964204098976 -0.00011942966178389667 -0.00029736234675745924 -0.00011942966178389667 -0.0002779926306354261" pbc="T T T"
Si      -1.42471639       1.81091313       9.32848351
Si      -0.37539716       4.75615542       3.89234924
Si      -1.61456850       4.44167473      10.07518613
Si       3.23402514       3.45386537       7.46100937
Si       3.99238567       6.06925374       7.46806765
Si       4.03473640       3.42994220       6.69680998
Si       6.44107949       5.65208094      -2.93021323
Si       1.64433429       3.99761024      -1.05463684
Si      -2.18827354      -0.85484970       9.93191854
Si       5.67345623       4.22979290       1.98317012
Si      -2.50409102      -0.78081221       8.91330700
Si      -1.46714263      -0.86066290       9.14727261
12
Lattice="5.8874496217939205 1.564446703884424 -1.704172391163106 0.45329847915352917 8.017141425671605 0.4428340319984271 -2.897111709024288 -2.2733106812251425 11.383609259691625" Properties=species:S:1:pos:R:3 unique_starting_index=44 config_type=initial n_minim_iter=17 stress="0.00011108962866278942 7.158399513992128e-05 -0.00024293588493736476 7.158399513992128e-05 -0.00010087347112376948 1.3465543857581277e-05 -0.00024293588493736476 1.3465543857581277e-05 -0.00036154650144334407" pbc="T T T"
Si      -1.42252964       1.80762923       9.32592446
Si      -0.37077714       4.75977525       3.89050713
Si      -1.61077076       4.43861463      10.07223177
Si       3.23604995       3.45345869       7.46021451
Si       3.99639673       6.06908086       7.46656980
Si       4.03742517       3.42922694       6.69620610
Si       6.44151158       5.65438899      -2.92802782
Si       1.64431585       3.99779032      -1.05394109
Si      -2.18587205      -0.85709469       9.92904003
Si       5.67834694       4.23410376       1.98304358
Si      -2.50124514      -0.78342700       8.91097279
Si      -1.46405179      -0.86346919       9.14422769
12
Lattice="5.886945897648833 1.5653016808976674 -1.7037365391928712 0.4542133102001077 8.017183032264894 0.442031579087326 -2.8955583237663047 -2.274950306877071 11.38484321748172" Properties=species:S:1:pos:R:3 unique_starting_index=44 config_type=initial n_minim_iter=18 stress="-5.3712146535451094e-05 4.8716472035171895e-05 -0.0002065399261944552 4.8716472035171895e-05 3.5365521745608886e-05 -1.666788832378803e-05 -0.0002065399261944552 -1.666788832378803e-05 -0.0003206110750007847" pbc="T T T"
Si      -1.42182779       1.80560129       9.32691762
Si      -0.36861606       4.76207470       3.89025311
Si      -1.60907301       4.43716178      10.07240342
Si       3.23662730       3.45276961       7.46140035
Si       3.99790870       6.06789561       7.46756659
Si       4.03805044       3.42829930       6.69733692
Si       6.44079854       5.65545608      -2.92803181
Si       1.64381100       3.99776982      -1.05412235
Si      -2.18433677      -0.85932496       9.92985401
Si       5.67994955       4.23622197       1.98328751
Si      -2.49945896      -0.78500046       8.91184497
Si      -1.46238262      -0.86509038       9.14494519
12
Lattice="5.886076441321134 1.565788526794991 -1.704080048410602 0.45459754496416893 8.017281962956192 0.4414847753262971 -2.89415304343499 -2.2762608913225186 11.389973317489583" Properties=species:S:1:pos:R:3 unique_starting_index=44 config_type=initial n_minim_iter=19 stress="-0.0001626344367161944 3.296576898230285e-05 -0.00010935683328487041 3.296576898230285e-05 0.00017684086024902677 4.155932541965827e-07 -0.00010935683328487041 4.155932541965827e-07 -0.0002119680595115437" pbc="T T T"
Si      -1.42193449       1.80418266       9.33149800
Si      -0.36650949       4.76571837       3.89139053
Si      -1.60755557       4.43551036      10.07617600
Si       3.23672728       3.45164691       7.46518571
Si       3.99882528       6.06674404       7.47059647
Si       4.03799890       3.42703918       6.70117270
Si       6.43902738       5.65563202      -2.92955515
Si       1.64296823       3.99734231      -1.05539810
Si      -2.18272886      -0.86087699       9.93395685
Si       5.68070212       4.23897601       1.98427760
Si      -2.49798396      -0.78691122       8.91558264
Si      -1.46129188      -0.86691511       9.14917331
12
Lattice="5.885275443806269 1.565895907976884 -1.70382589790413 0.45465930217121553 8.017281733371933 0.44134281110116474 -2.8924500895864873 -2.2767252832285627 11.392523454853473" Properties=species:S:1:pos:R:3 unique_starting_index=44 config_type=initial n_minim_iter=20 stress="-0.00019888882696244517 2.3727805411999126e-05 0.0001013450783012133 2.3727805411999126e-05 0.00021357350985153745 6.452249221263775e-06 0.0001013450783012133 6.452249221263775e-06 -0.00016049321905702217" pbc="T T T"
Si      -1.42106944       1.80327934       9.33344185
Si      -0.36482317       4.76856019       3.89202505
Si      -1.60619164       4.43465173      10.07793013
Si       3.23697179       3.45069901       7.46725491
Si       3.99971013       6.06601984       7.47289071
Si       4.03848185       3.42608855       6.70361132
Si       6.43721876       5.65518004      -2.92960602
Si       1.64271069       3.99678433      -1.05574790
Si      -2.18136526      -0.86150554       9.93588163
Si       5.68088879       4.24115638       1.98541769
Si      -2.49689033      -0.78772678       8.91762373
Si      -1.45987313      -0.86768493       9.15150846
12
Lattice="5.884077335266948 1.5659059350164823 -1.7045306480742957 0.45452271494216334 8.017189181346119 0.4412481877095566 -2.8921112518148577 -2.2770053464935063 11.396133143888095" Properties=species:S:1:pos:R:3 unique_starting_index=44 config_type=initial n_minim_iter=21 stress="-0.00035858365686190763 -2.5816233308952407e-05 0.00023007456234737652 -2.5816233308952407e-05 0.0001751580842365321 2.7859410557292155e-05 0.00023007456234737652 2.7859410557292155e-05 0.0001445349744191719" pbc="T T T"
Si      -1.42107949       1.80197803       9.33664413
Si      -0.36247927       4.77431400       3.89287291
Si      -1.60644887       4.43324899      10.08101742
Si       3.23543707       3.44949824       7.46919836
Si       3.99871644       6.06453604       7.47468834
Si       4.03777233       3.42469630       6.70555620
Si       6.43494740       5.65439200      -2.93059476
Si       1.64243111       3.99593413      -1.05685147
Si      -2.18190972      -0.86310717       9.93852795
Si       5.68021283       4.24582561       1.98613000
Si      -2.49723254      -0.78914058       8.92079491
Si      -1.45970194      -0.86902589       9.15457160
