8
Lattice="6.033170166481752 -9.765133731542184e-08 2.665004494483902e-07 -2.9444194763698572 5.265884180733499 -2.665004494483902e-07 -2.9444198093333602 -1.8117336296207982 4.944406486064013" Properties=species:S:1:pos:R:3 unique_starting_index=16 config_type=initial n_minim_iter=1 pbc="T T T"
Si      -1.75536380       1.03442732       2.87763414
Si       3.12459888       1.70124479       1.03831509
Si       1.90388757       1.10563003       2.98978777
Si      -2.98445969       3.06699807       2.98307647
Si       1.90388764       2.42687016       2.06677260
Si      -2.98445975       1.74575794       3.90609165
Si       3.12459882       0.38961110       1.95461923
Si      -1.75536373       2.34606101       1.96133000
8
Lattice="6.078020044851577 0.03354559308338437 0.048018887342056775 -2.9370285241875504 5.32140173455656 -0.04801888734205683 -2.9370288627825514 -1.875921636342692 4.980013881452344" Properties=species:S:1:pos:R:3 unique_starting_index=16 config_type=initial n_minim_iter=2 pbc="T T T"
Si      -1.73870307       1.02459861       2.89125699
Si       3.16351295       1.73832839       1.06370597
Si       1.94680956       1.11436128       3.02985835
Si      -2.96369292       3.08076240       2.97520697
Si       1.94680963       2.46149046       2.08875715
Si      -2.96369298       1.73363321       3.91630817
Si       3.16351289       0.40069322       1.99817468
Si      -1.73870300       2.36223378       1.95678829
8
Lattice="6.42988783494949 0.2900950659959605 0.41525389181259875 -2.8848315083167053 5.753725739550832 -0.41525389181259814 -2.884831890469393 -2.369478854594128 5.25959726912377" Properties=species:S:1:pos:R:3 unique_starting_index=16 config_type=initial n_minim_iter=3 pbc="T T T"
Si      -1.61161222       0.95064763       3.00141201
Si       3.46440320       2.02418392       1.25687956
Si       2.27650009       1.18049974       3.34181086
Si      -2.80884091       3.19335187       2.91909276
Si       2.27650016       2.73164347       2.25818559
Si      -2.80884098       1.64220814       4.00271804
Si       3.46440313       0.48372475       2.33304063
Si      -1.61161215       2.49110679       1.92525095
8
Lattice="6.918626753488459 0.3277069332250846 0.4690930271094099 -3.090526454135093 6.198663906396376 -0.4690930271094093 -3.0905268667995656 -2.5731126391377908 5.6588489366789165" Properties=species:S:1:pos:R:3 unique_starting_index=16 config_type=initial n_minim_iter=4 pbc="T T T"
Si      -1.70750782       1.00724996       3.23284671
Si       3.73336060       2.19035665       1.34433392
Si       2.45005364       1.26140308       3.60878485
Si      -3.00075817       3.44750591       3.13173312
Si       2.45005372       2.95448401       2.42600259
Si      -3.00075825       1.75442498       4.31451538
Si       3.73336052       0.50866812       2.51915747
Si      -1.70750774       2.68893849       2.05802315
8
Lattice="7.718005738495054 0.2370188356067065 0.33927858002856637 -3.5598087599785866 6.852120263119631 -0.3392785800285652 -3.5598092082270716 -2.676045635256395 6.317075163537955" Properties=species:S:1:pos:R:3 unique_starting_index=16 config_type=initial n_minim_iter=5 pbc="T T T"
Si      -1.98905468       1.17214437       3.65151239
Si       4.10195654       2.35259751       1.39394258
Si       2.59219725       1.38499157       3.96779248
Si      -3.50832203       3.91645258       3.62090362
Si       2.59219733       3.24905374       2.66556314
Si      -3.50832212       2.05239041       4.92313295
Si       4.10195646       0.49942900       2.68856164
Si      -1.98905459       3.02531288       2.35689334
8
Lattice="7.7763788054236125 0.18191204521023208 0.26039656217209406 -3.6363954889884407 6.876175329738088 -0.2603965621720935 -3.636395935273517 -2.6102554620943725 6.366801136501592" Properties=species:S:1:pos:R:3 unique_starting_index=16 config_type=initial n_minim_iter=6 pbc="T T T"
Si      -2.04790673       1.20620542       3.69557021
Si       4.10612966       2.32974133       1.36592384
Si       2.55584816       1.39031569       3.96973714
Si      -3.60689477       3.96940048       3.70237181
Si       2.55584825       3.24904791       2.67123129
Si      -3.60689486       2.11066827       5.00087766
Si       4.10612957       0.48098448       2.65746092
Si      -2.04790664       3.05496226       2.40403313
8
Lattice="7.788046354872683 0.15244122910361602 0.21821088054935614 -3.66781248193712 6.871976131457573 -0.2182108805493574 -3.6678129260932315 -2.5692004372014523 6.377372326831304" Properties=species:S:1:pos:R:3 unique_starting_index=16 config_type=initial n_minim_iter=7 pbc="T T T"
Si      -2.07177189       1.21951345       3.71133385
Si       4.09783003       2.31267272       1.34477716
Si       2.52794440       1.38783146       3.96142477
Si      -3.64915909       3.99041531       3.73720959
Si       2.52794448       3.24209771       2.66603883
Si      -3.64915917       2.13614905       5.03259553
Si       4.09782994       0.46700126       2.63415879
Si      -2.07177181       3.06518491       2.42195222
8
Lattice="7.768576290414049 0.14507192506351888 0.20766216831408552 -3.664742432044836 6.851385724814728 -0.20766216831408607 -3.6647428744330464 -2.552211561205374 6.36166824274228" Properties=species:S:1:pos:R:3 unique_starting_index=16 config_type=initial n_minim_iter=8 pbc="T T T"
Si      -2.06831825       1.21676152       3.70695352
Si       4.08344274       2.30304823       1.33144140
Si       2.51052698       1.38039851       3.94879708
Si      -3.64746795       3.98828301       3.73614520
Si       2.51052706       3.23279824       2.65471508
Si      -3.64746803       2.13588327       5.03022720
Si       4.08344266       0.45779096       2.62053369
Si      -2.06831817       3.06201880       2.41786123
8
Lattice="7.7174106944217655 0.1380360885143093 0.19759079239383429 -3.6459126843092395 6.803293502892608 -0.1975907923938356 -3.645913123211687 -2.5262088500961233 6.319977076939074" Properties=species:S:1:pos:R:3 unique_starting_index=16 config_type=initial n_minim_iter=9 pbc="T T T"
Si      -2.05031427       1.20478131       3.69149353
Si       4.05137546       2.28622993       1.30567805
Si       2.47777764       1.36239441       3.92169001
Si      -3.62766752       3.97683493       3.72109327
Si       2.47777773       3.21354037       2.62848390
Si      -3.62766761       2.12568897       5.01429938
Si       4.05137537       0.43938680       2.59587821
Si      -2.05031418       3.05162444       2.40129337
8
Lattice="7.323326259099646 0.09322597190729744 0.13344780690157432 -3.492695562748455 6.437458837539372 -0.13344780690157557 -3.4926959756857046 -2.3401159043064688 5.998544762862415" Properties=species:S:1:pos:R:3 unique_starting_index=16 config_type=initial n_minim_iter=10 pbc="T T T"
Si      -1.89794767       1.10808614       3.57522474
Si       3.80429310       2.16251766       1.10644691
Si       2.23136899       1.21749438       3.72082017
Si      -3.46184351       3.89303879       3.59459836
Si       2.23136907       3.07478652       2.42332035
Si      -3.46184359       2.03574664       4.89209818
Si       3.80429301       0.29488194       2.41117273
Si      -1.89794758       2.97572186       2.27049892
8
Lattice="7.824549324027072 0.04589661301164808 0.06569873945080856 -3.7786218317918756 6.851838853586992 -0.06569873945081034 -3.7786222679378536 -2.419070763727756 6.410936385888233" Properties=species:S:1:pos:R:3 unique_starting_index=16 config_type=initial n_minim_iter=11 pbc="T T T"
Si      -2.03496882       1.19939560       3.84532363
Si       4.03516097       2.26282901       1.11064163
Si       2.30730805       1.27779560       3.96983208
Si      -3.77288820       4.21730829       3.89607610
Si       2.30730814       3.28784974       2.56561309
Si      -3.77288829       2.20725414       5.30029509
Si       4.03516088       0.26430830       2.50680339
Si      -2.03496872       3.19791631       2.44916188
8
Lattice="7.30166754124418 0.06508212090599091 0.09316159294738179 -3.5066898493247263 6.404819346864 -0.09316159294738241 -3.5066902584186264 -2.2910594717833357 5.98175840167293" Properties=species:S:1:pos:R:3 unique_starting_index=16 config_type=initial n_minim_iter=12 pbc="T T T"
Si      -1.89187368       1.11468548       3.57919716
Si       3.77545523       2.12842271       1.06311619
Si       2.18451741       1.19910547       3.71066905
Si      -3.49152262       3.91546948       3.61053503
Si       2.18451749       3.07158186       2.40256156
Si      -3.49152271       2.04299310       4.91864253
Si       3.77545514       0.26592693       2.36425126
Si      -1.89187360       2.97718126       2.27806209
