8
Lattice="25.0 0.0 0.0 0.0 25.0 0.0 0.0 0.0 25.0" Properties=species:S:1:pos:R:3:forces:R:3 virial="46.0659457215 0.0 -0.0 0.0 46.0657506743 0.0 -0.0 0.0 58.4412004172" energy=-20.90218428 stress="-0.00294822052617 -0.0 0.0 -0.0 -0.00294820804316 -0.0 0.0 -0.0 -0.0037402368267" free_energy=-20.95860324 pbc="T T T"
P      13.45263000      12.50000000      10.20371000       1.28072600      -0.00000000      -1.10856700 
P      11.54737000      13.60000000      10.20371000      -0.64032700       1.10903700      -1.10856100 
P      11.54737000      11.40000000      10.20371000      -0.64032700      -1.10903700      -1.10856100 
P      12.18246000      12.50000000      12.00000000      -0.00010200       0.00000000     -45.40180000 
P      13.45263000      12.50000000      13.00000000      22.92363200      -0.00000000      15.53902300 
P      11.54737000      13.60000000      13.00000000     -11.46176200      19.85234800      15.53903800 
P      11.54737000      11.40000000      13.00000000     -11.46176200     -19.85234800      15.53903800 
P      12.18246000      12.50000000      14.79629000      -0.00007900      -0.00000000       2.11039000 
8
Lattice="25.0 0.0 0.0 0.0 25.0 0.0 0.0 0.0 25.0" Properties=species:S:1:pos:R:3:forces:R:3 virial="11.6926871587 0.0 -9.75235800919e-05 0.0 11.692394588 0.0 -9.75235800919e-05 0.0 29.4281303871" energy=-34.36523521 stress="-0.000748331978157 -0.0 6.24150912588e-09 -0.0 -0.00074831325363 -0.0 6.24150912588e-09 -0.0 -0.00188340034477" free_energy=-34.44128505 pbc="T T T"
P      13.45263000      12.50000000       9.95371000       0.81588400       0.00000000      -0.94779600 
P      11.54737000      13.60000000       9.95371000      -0.40791800       0.70647800      -0.94779300 
P      11.54737000      11.40000000       9.95371000      -0.40791800      -0.70647800      -0.94779300 
P      12.18246000      12.50000000      11.75000000      -0.00003700       0.00000000     -10.48758600 
P      13.45263000      12.50000000      13.25000000       5.34140400       0.00000000       3.63332100 
P      11.54737000      13.60000000      13.25000000      -2.67066000       4.62571800       3.63332700 
P      11.54737000      11.40000000      13.25000000      -2.67066000      -4.62571800       3.63332700 
P      12.18246000      12.50000000      15.04629000      -0.00009600       0.00000000       2.43099300 
8
Lattice="25.0 0.0 0.0 0.0 25.0 0.0 0.0 0.0 25.0" Properties=species:S:1:pos:R:3:forces:R:3 virial="0.0209675697198 0.0 0.0 0.0 0.0207725225596 0.0 0.0 0.0 21.8209985691" energy=-39.72653509 stress="-1.34192446206e-06 -0.0 -0.0 -0.0 -1.32944144381e-06 -0.0 -0.0 -0.0 -0.00139654390843" free_energy=-39.72653509 pbc="T T T"
P      13.45263000      12.50000000       9.70371000       0.05926000      -0.00000000      -0.80328700 
P      11.54737000      13.60000000       9.70371000      -0.02960700       0.05122600      -0.80327900 
P      11.54737000      11.40000000       9.70371000      -0.02960700      -0.05122600      -0.80327900 
P      12.18246000      12.50000000      11.50000000      -0.00005000      -0.00000000      -3.98054100 
P      13.45263000      12.50000000      13.50000000      -0.02968400      -0.00000000       1.24895400 
P      11.54737000      13.60000000      13.50000000       0.01488500      -0.02580200       1.24894800 
P      11.54737000      11.40000000      13.50000000       0.01488500       0.02580200       1.24894800 
P      12.18246000      12.50000000      15.29629000      -0.00008400      -0.00000000       2.64353500 
8
Lattice="25.0 0.0 0.0 0.0 25.0 0.0 0.0 0.0 25.0" Properties=species:S:1:pos:R:3:forces:R:3 virial="-0.331580172313 0.0 0.0 0.0 -0.331775219473 0.0 0.0 0.0 7.90535892583" energy=-41.62475892 stress="2.1221131028e-05 -0.0 -0.0 -0.0 2.12336140463e-05 -0.0 -0.0 -0.0 -0.000505942971253" free_energy=-41.62475892 pbc="T T T"
P      13.45263000      12.50000000       9.45371000       0.03979300       0.00000000      -0.26352100 
P      11.54737000      13.60000000       9.45371000      -0.01985700       0.03435200      -0.26351500 
P      11.54737000      11.40000000       9.45371000      -0.01985700      -0.03435200      -0.26351500 
P      12.18246000      12.50000000      11.25000000      -0.00008000       0.00000000      -1.13207700 
P      13.45263000      12.50000000      13.75000000      -0.19518700       0.00000000       0.32233000 
P      11.54737000      13.60000000      13.75000000       0.09763200      -0.16914800       0.32233500 
P      11.54737000      11.40000000      13.75000000       0.09763200       0.16914800       0.32233500 
P      12.18246000      12.50000000      15.54629000      -0.00007400       0.00000000       0.95562700 
8
Lattice="25.0 0.0 0.0 0.0 25.0 0.0 0.0 0.0 25.0" Properties=species:S:1:pos:R:3:forces:R:3 virial="-0.109518980443 0.0 0.0 0.0 -0.109714027603 0.0 0.0 0.0 2.143665814" energy=-42.13400051 stress="7.00921474837e-06 -0.0 -0.0 -0.0 7.02169776662e-06 -0.0 -0.0 -0.0 -0.000137194612096" free_energy=-42.13400051 pbc="T T T"
P      13.45263000      12.50000000       9.20371000       0.04124100      -0.00000000      -0.07272800 
P      11.54737000      13.60000000       9.20371000      -0.02057500       0.03562300      -0.07273300 
P      11.54737000      11.40000000       9.20371000      -0.02057500      -0.03562300      -0.07273300 
P      12.18246000      12.50000000      11.00000000      -0.00009000      -0.00000000      -0.19300700 
P      13.45263000      12.50000000      14.00000000      -0.07997400      -0.00000000       0.03381000 
P      11.54737000      13.60000000      14.00000000       0.04000900      -0.06935400       0.03381700 
P      11.54737000      11.40000000      14.00000000       0.04000900       0.06935400       0.03381700 
P      12.18246000      12.50000000      15.79629000      -0.00004300       0.00000000       0.30975600 
8
Lattice="25.0 0.0 0.0 0.0 25.0 0.0 0.0 0.0 25.0" Properties=species:S:1:pos:R:3:forces:R:3 virial="0.0364738189544 0.0 -0.0 0.0 0.0362787717942 0.0 -0.0 0.0 0.307101753709" energy=-42.21485989 stress="-2.33432441308e-06 -0.0 0.0 -0.0 -2.32184139483e-06 -0.0 0.0 -0.0 -1.96545122374e-05" free_energy=-42.21485989 pbc="T T T"
P      13.45263000      12.50000000       8.95371000       0.04368300      -0.00000000      -0.01915100 
P      11.54737000      13.60000000       8.95371000      -0.02179900       0.03774600      -0.01915100 
P      11.54737000      11.40000000       8.95371000      -0.02179900      -0.03774600      -0.01915100 
P      12.18246000      12.50000000      10.75000000      -0.00008600      -0.00000000       0.04675600 
P      13.45263000      12.50000000      14.25000000      -0.00589300      -0.00000000      -0.03408100 
P      11.54737000      13.60000000      14.25000000       0.00296600      -0.00520700      -0.03409200 
P      11.54737000      11.40000000      14.25000000       0.00296600       0.00520700      -0.03409200 
P      12.18246000      12.50000000      16.04629000      -0.00003800       0.00000000       0.11296200 
8
Lattice="25.0 0.0 0.0 0.0 25.0 0.0 0.0 0.0 25.0" Properties=species:S:1:pos:R:3:forces:R:3 virial="0.0920622596068 0.0 -0.0 0.0 0.0918672124466 0.0 -0.0 0.0 -0.104252707118" energy=-42.19712606 stress="-5.89198461483e-06 -0.0 0.0 -0.0 -5.87950159658e-06 -0.0 0.0 -0.0 6.67217325557e-06" free_energy=-42.19712606 pbc="T T T"
P      13.45263000      12.50000000       8.70371000       0.04311200      -0.00000000      -0.00901700 
P      11.54737000      13.60000000       8.70371000      -0.02152400       0.03723100      -0.00901200 
P      11.54737000      11.40000000       8.70371000      -0.02152400      -0.03723100      -0.00901200 
P      12.18246000      12.50000000      10.50000000      -0.00006700       0.00000000       0.08287900 
P      13.45263000      12.50000000      14.50000000       0.02396500       0.00000000      -0.03824000 
P      11.54737000      13.60000000      14.50000000      -0.01195100       0.02064400      -0.03823800 
P      11.54737000      11.40000000      14.50000000      -0.01195100      -0.02064400      -0.03823800 
P      12.18246000      12.50000000      16.29629000      -0.00006100       0.00000000       0.05887900 
8
Lattice="25.0 0.0 0.0 0.0 25.0 0.0 0.0 0.0 25.0" Properties=species:S:1:pos:R:3:forces:R:3 virial="0.107958603162 0.0 -0.0 0.0 0.107763556002 0.0 -0.0 0.0 -0.118881244132" energy=-42.17019667 stress="-6.90935060235e-06 -0.0 0.0 -0.0 -6.8968675841e-06 -0.0 0.0 -0.0 7.60839962445e-06" free_energy=-42.17019667 pbc="T T T"
P      13.45263000      12.50000000       8.45371000       0.04150100       0.00000000      -0.00896200 
P      11.54737000      13.60000000       8.45371000      -0.02073000       0.03583500      -0.00897100 
P      11.54737000      11.40000000       8.45371000      -0.02073000      -0.03583500      -0.00897100 
P      12.18246000      12.50000000      10.25000000      -0.00004200       0.00000000       0.07428600 
P      13.45263000      12.50000000      14.75000000       0.03396900       0.00000000      -0.03072800 
P      11.54737000      13.60000000      14.75000000      -0.01694400       0.02933200      -0.03072600 
P      11.54737000      11.40000000      14.75000000      -0.01694400      -0.02933200      -0.03072600 
P      12.18246000      12.50000000      16.54629000      -0.00008100       0.00000000       0.04479800 
8
Lattice="25.0 0.0 0.0 0.0 25.0 0.0 0.0 0.0 25.0" Properties=species:S:1:pos:R:3:forces:R:3 virial="0.111469452045 0.0 0.0 0.0 0.111274404885 0.0 0.0 0.0 -0.0601720489167" energy=-42.15074042 stress="-7.13404493088e-06 -0.0 -0.0 -0.0 -7.12156191263e-06 -0.0 -0.0 -0.0 3.85101113067e-06" free_energy=-42.15074042 pbc="T T T"
P      13.45263000      12.50000000       8.20371000       0.04018800       0.00000000      -0.01029900 
P      11.54737000      13.60000000       8.20371000      -0.02007400       0.03471000      -0.01029700 
P      11.54737000      11.40000000       8.20371000      -0.02007400      -0.03471000      -0.01029700 
P      12.18246000      12.50000000      10.00000000      -0.00004200      -0.00000000       0.06176500 
P      13.45263000      12.50000000      15.00000000       0.03712600       0.00000000      -0.02403900 
P      11.54737000      13.60000000      15.00000000      -0.01851800       0.03206300      -0.02404300 
P      11.54737000      11.40000000      15.00000000      -0.01851800      -0.03206300      -0.02404300 
P      12.18246000      12.50000000      16.79629000      -0.00008800      -0.00000000       0.04125200 
8
Lattice="25.0 0.0 0.0 0.0 25.0 0.0 0.0 0.0 25.0" Properties=species:S:1:pos:R:3:forces:R:3 virial="0.111274404885 0.0 0.0 0.0 0.111079357725 0.0 0.0 0.0 -0.00380341962359" energy=-42.13865278 stress="-7.12156191263e-06 -0.0 -0.0 -0.0 -7.10907889438e-06 -0.0 -0.0 -0.0 2.43418855909e-07" free_energy=-42.13865278 pbc="T T T"
P      13.45263000      12.50000000       7.95371000       0.03926700       0.00000000      -0.01141200 
P      11.54737000      13.60000000       7.95371000      -0.01959900       0.03389800      -0.01140200 
P      11.54737000      11.40000000       7.95371000      -0.01959900      -0.03389800      -0.01140200 
P      12.18246000      12.50000000       9.75000000      -0.00007200      -0.00000000       0.05256800 
P      13.45263000      12.50000000      15.25000000       0.03801800       0.00000000      -0.01959400 
P      11.54737000      13.60000000      15.25000000      -0.01896700       0.03281500      -0.01959200 
P      11.54737000      11.40000000      15.25000000      -0.01896700      -0.03281500      -0.01959200 
P      12.18246000      12.50000000      17.04629000      -0.00008200      -0.00000000       0.04042500 
8
Lattice="25.0 0.0 0.0 0.0 25.0 0.0 0.0 0.0 25.0" Properties=species:S:1:pos:R:3:forces:R:3 virial="0.110299169084 0.0 0.0 0.0 0.110104121924 0.0 0.0 0.0 0.0372540075951" energy=-42.13159872 stress="-7.05914682137e-06 -0.0 -0.0 -0.0 -7.04666380312e-06 -0.0 -0.0 -0.0 -2.38425648609e-06" free_energy=-42.13159872 pbc="T T T"
P      13.45263000      12.50000000       7.70371000       0.03861300      -0.00000000      -0.01212100 
P      11.54737000      13.60000000       7.70371000      -0.01926200       0.03334200      -0.01212200 
P      11.54737000      11.40000000       7.70371000      -0.01926200      -0.03334200      -0.01212200 
P      12.18246000      12.50000000       9.50000000      -0.00009100       0.00000000       0.04678100 
P      13.45263000      12.50000000      15.50000000       0.03810100      -0.00000000      -0.01685400 
P      11.54737000      13.60000000      15.50000000      -0.01902400       0.03289700      -0.01684400 
P      11.54737000      11.40000000      15.50000000      -0.01902400      -0.03289700      -0.01684400 
P      12.18246000      12.50000000      17.29629000      -0.00005100       0.00000000       0.04012600 
