4
Lattice="5.08788732 0.0 0.0 2.1837197857423574 4.595428737166331 0.0 -3.6358035528721344 -2.2977143685837693 2.718094661034239" Properties=species:S:1:pos:R:3:tags:I:1 spacegroup="P 1" unit_cell=conventional pbc="T T T"
Ti       0.00000000       0.00000000       0.00000000        0 
Al       3.63580355       2.29771437       0.00000000        1 
Al       2.54394366      -0.00000000       1.35904733        2 
Al       1.09185989       2.29771437       1.35904733        3 
