4
Lattice="3.076 0.0 0.0 -1.5379999999999994 2.6638941420409337 0.0 0.0 0.0 5.048" Properties=species:S:1:pos:R:3 C=T Si=T pbc="T T T"
Si       0.00000000       1.77592900       0.00000000 
Si       1.53800000       0.88796500       2.52400000 
C       0.00000000       1.77592900       1.94348000 
C       1.53800000       0.88796500       4.46748000 
