2
Lattice="4.849739760871077 8.68194152410472e-18 1.803378713678214e-16 8.681941524104368e-18 4.849739760871076 -2.345562767346715e-16 2.4248698804355384 2.424869880435538 1.3370793002179568" Properties=species:S:1:pos:R:3 cutoff=-1.0 nneightol=1.2 n_minim_iter=2 pbc="T T T"
Si      -0.00000000      -1.21243494      -0.33426983
Si      -0.00000000       1.21243494       0.33426983
