2
Lattice="3.1129678053360847 -5.3120270950683613e-33 -6.748469490505156e-35 -8.59298500672823e-33 3.1129678053360847 2.7109225077755248e-18 4.144657967519123e-35 2.7109225077755244e-18 3.1129678053360847" Properties=species:S:1:pos:R:3 n_minim_iter=2 pbc="T T T"
Si       0.00000000       0.00000000       0.00000000
Si       1.55648390       1.55648390       1.55648390
