135
cutoff=-1.00000000 nneightol=1.20000000 pbc="T T T" Lattice="12.82663559       0.00000000       0.00000000      -6.41331780      11.10819226       0.00000000       0.00000000       0.00000000      29.82020192" Properties=species:S:1:pos:R:3:Z:I:1:forces:R:3 vacancies="0,6,12" bulk_struct_test="bulk_Sb2Te3_R-3m" supercell_a1_in_bulk_lattice_coordinates="3 0 0"
Sb              2.13777473      1.23424235     21.83427157      51      0.00000000     -0.00000000     -0.00061283
Sb             -0.00000214      2.46848841      1.95415685      51      0.00000000     -0.00000000     -0.00061283
Sb              0.00000000      0.00000000     11.89421421      51      0.00000000     -0.00000000     -0.00061283
Sb              0.00000000      0.00000000     17.92598771      51     -0.00000000      0.00000000      0.00061283
Sb             -0.00000214      2.46848841      7.98593034      51     -0.00000000      0.00000000      0.00061283
Sb              2.13777473      1.23424235     27.86604507      51     -0.00000000      0.00000000      0.00061283
Te              2.13777473      1.23424235      3.66383396      52     -0.00000000     -0.00000000     -0.00051950
Te             -0.00000214      2.46848841     13.60392115      52      0.00000000     -0.00000000     -0.00051950
Te              0.00000000      0.00000000     23.54397851      52     -0.00000000     -0.00000000     -0.00051950
Te              0.00000000      0.00000000      6.27622341      52     -0.00000000      0.00000000      0.00051950
Te             -0.00000214      2.46848841     26.15636796      52     -0.00000000      0.00000000      0.00051950
Te              2.13777473      1.23424235     16.21628077      52     -0.00000000      0.00000000      0.00051950
Te              2.13777473      1.23424235      9.94005736      52      0.00000000      0.00000000      0.00000000
Te             -0.00000214      2.46848841     19.88014456      52      0.00000000      0.00000000     -0.00000000
Te              0.00000000      0.00000000      0.00000000      52      0.00000000      0.00000000     -0.00000000
Sb              0.00000213      4.93697310     21.83427157      51      0.00000000     -0.00000000     -0.00061283
Sb             -2.13777474      6.17121916      1.95415685      51      0.00000000     -0.00000000     -0.00061283
Sb             -2.13777260      3.70273075     11.89421421      51      0.00000000     -0.00000000     -0.00061283
Sb             -2.13777260      3.70273075     17.92598771      51     -0.00000000      0.00000000      0.00061283
Sb             -2.13777474      6.17121916      7.98593034      51     -0.00000000      0.00000000      0.00061283
Sb              0.00000213      4.93697310     27.86604507      51     -0.00000000      0.00000000      0.00061283
Te              0.00000213      4.93697310      3.66383396      52     -0.00000000     -0.00000000     -0.00051950
Te             -2.13777474      6.17121916     13.60392115      52      0.00000000     -0.00000000     -0.00051950
Te             -2.13777260      3.70273075     23.54397851      52     -0.00000000     -0.00000000     -0.00051950
Te             -2.13777260      3.70273075      6.27622341      52     -0.00000000      0.00000000      0.00051950
Te             -2.13777474      6.17121916     26.15636796      52     -0.00000000      0.00000000      0.00051950
Te              0.00000213      4.93697310     16.21628077      52     -0.00000000      0.00000000      0.00051950
Te              0.00000213      4.93697310      9.94005736      52      0.00000000      0.00000000      0.00000000
Te             -2.13777474      6.17121916     19.88014456      52      0.00000000      0.00000000     -0.00000000
Te             -2.13777260      3.70273075      0.00000000      52      0.00000000      0.00000000     -0.00000000
Sb             -2.13777047      8.63970386     21.83427157      51      0.00000000     -0.00000000     -0.00061283
Sb             -4.27554734      9.87394992      1.95415685      51      0.00000000     -0.00000000     -0.00061283
Sb             -4.27554520      7.40546151     11.89421421      51      0.00000000     -0.00000000     -0.00061283
Sb             -4.27554520      7.40546151     17.92598771      51     -0.00000000      0.00000000      0.00061283
Sb             -4.27554734      9.87394992      7.98593034      51     -0.00000000      0.00000000      0.00061283
Sb             -2.13777047      8.63970386     27.86604507      51     -0.00000000      0.00000000      0.00061283
Te             -2.13777047      8.63970386      3.66383396      52     -0.00000000     -0.00000000     -0.00051950
Te             -4.27554734      9.87394992     13.60392115      52      0.00000000     -0.00000000     -0.00051950
Te             -4.27554520      7.40546151     23.54397851      52     -0.00000000     -0.00000000     -0.00051950
Te             -4.27554520      7.40546151      6.27622341      52     -0.00000000      0.00000000      0.00051950
Te             -4.27554734      9.87394992     26.15636796      52     -0.00000000      0.00000000      0.00051950
Te             -2.13777047      8.63970386     16.21628077      52     -0.00000000      0.00000000      0.00051950
Te             -2.13777047      8.63970386      9.94005736      52      0.00000000      0.00000000      0.00000000
Te             -4.27554734      9.87394992     19.88014456      52      0.00000000      0.00000000     -0.00000000
Te             -4.27554520      7.40546151      0.00000000      52      0.00000000      0.00000000     -0.00000000
Sb              6.41331993      1.23424235     21.83427157      51      0.00000000     -0.00000000     -0.00061283
Sb              4.27554306      2.46848841      1.95415685      51      0.00000000     -0.00000000     -0.00061283
Sb              4.27554520      0.00000000     11.89421421      51      0.00000000     -0.00000000     -0.00061283
Sb              4.27554520      0.00000000     17.92598771      51     -0.00000000      0.00000000      0.00061283
Sb              4.27554306      2.46848841      7.98593034      51     -0.00000000      0.00000000      0.00061283
Sb              6.41331993      1.23424235     27.86604507      51     -0.00000000      0.00000000      0.00061283
Te              6.41331993      1.23424235      3.66383396      52     -0.00000000     -0.00000000     -0.00051950
Te              4.27554306      2.46848841     13.60392115      52      0.00000000     -0.00000000     -0.00051950
Te              4.27554520      0.00000000     23.54397851      52     -0.00000000     -0.00000000     -0.00051950
Te              4.27554520      0.00000000      6.27622341      52     -0.00000000      0.00000000      0.00051950
Te              4.27554306      2.46848841     26.15636796      52     -0.00000000      0.00000000      0.00051950
Te              6.41331993      1.23424235     16.21628077      52     -0.00000000      0.00000000      0.00051950
Te              6.41331993      1.23424235      9.94005736      52      0.00000000      0.00000000      0.00000000
Te              4.27554306      2.46848841     19.88014456      52      0.00000000      0.00000000     -0.00000000
Te              4.27554520      0.00000000      0.00000000      52      0.00000000      0.00000000     -0.00000000
Sb              4.27554733      4.93697310     21.83427157      51      0.00000000     -0.00000000     -0.00061283
Sb              2.13777046      6.17121916      1.95415685      51      0.00000000     -0.00000000     -0.00061283
Sb              2.13777260      3.70273075     11.89421421      51      0.00000000     -0.00000000     -0.00061283
Sb              2.13777260      3.70273075     17.92598771      51     -0.00000000      0.00000000      0.00061283
Sb              2.13777046      6.17121916      7.98593034      51     -0.00000000      0.00000000      0.00061283
Sb              4.27554733      4.93697310     27.86604507      51     -0.00000000      0.00000000      0.00061283
Te              4.27554733      4.93697310      3.66383396      52     -0.00000000     -0.00000000     -0.00051950
Te              2.13777046      6.17121916     13.60392115      52      0.00000000     -0.00000000     -0.00051950
Te              2.13777260      3.70273075     23.54397851      52     -0.00000000     -0.00000000     -0.00051950
Te              2.13777260      3.70273075      6.27622341      52     -0.00000000      0.00000000      0.00051950
Te              2.13777046      6.17121916     26.15636796      52     -0.00000000      0.00000000      0.00051950
Te              4.27554733      4.93697310     16.21628077      52     -0.00000000      0.00000000      0.00051950
Te              4.27554733      4.93697310      9.94005736      52      0.00000000      0.00000000      0.00000000
Te              2.13777046      6.17121916     19.88014456      52      0.00000000      0.00000000     -0.00000000
Te              2.13777260      3.70273075      0.00000000      52      0.00000000      0.00000000     -0.00000000
Sb              2.13777473      8.63970386     21.83427157      51      0.00000000     -0.00000000     -0.00061283
Sb             -0.00000214      9.87394992      1.95415685      51      0.00000000     -0.00000000     -0.00061283
Sb              0.00000000      7.40546151     11.89421421      51      0.00000000     -0.00000000     -0.00061283
Sb              0.00000000      7.40546151     17.92598771      51     -0.00000000      0.00000000      0.00061283
Sb             -0.00000214      9.87394992      7.98593034      51     -0.00000000      0.00000000      0.00061283
Sb              2.13777473      8.63970386     27.86604507      51     -0.00000000      0.00000000      0.00061283
Te              2.13777473      8.63970386      3.66383396      52     -0.00000000     -0.00000000     -0.00051950
Te             -0.00000214      9.87394992     13.60392115      52      0.00000000     -0.00000000     -0.00051950
Te              0.00000000      7.40546151     23.54397851      52     -0.00000000     -0.00000000     -0.00051950
Te              0.00000000      7.40546151      6.27622341      52     -0.00000000      0.00000000      0.00051950
Te             -0.00000214      9.87394992     26.15636796      52     -0.00000000      0.00000000      0.00051950
Te              2.13777473      8.63970386     16.21628077      52     -0.00000000      0.00000000      0.00051950
Te              2.13777473      8.63970386      9.94005736      52      0.00000000      0.00000000      0.00000000
Te             -0.00000214      9.87394992     19.88014456      52      0.00000000      0.00000000     -0.00000000
Te              0.00000000      7.40546151      0.00000000      52      0.00000000      0.00000000     -0.00000000
Sb             10.68886513      1.23424235     21.83427157      51      0.00000000     -0.00000000     -0.00061283
Sb              8.55108826      2.46848841      1.95415685      51      0.00000000     -0.00000000     -0.00061283
Sb              8.55109040      0.00000000     11.89421421      51      0.00000000     -0.00000000     -0.00061283
Sb              8.55109040      0.00000000     17.92598771      51     -0.00000000      0.00000000      0.00061283
Sb              8.55108826      2.46848841      7.98593034      51     -0.00000000      0.00000000      0.00061283
Sb             10.68886513      1.23424235     27.86604507      51     -0.00000000      0.00000000      0.00061283
Te             10.68886513      1.23424235      3.66383396      52     -0.00000000     -0.00000000     -0.00051950
Te              8.55108826      2.46848841     13.60392115      52      0.00000000     -0.00000000     -0.00051950
Te              8.55109040      0.00000000     23.54397851      52     -0.00000000     -0.00000000     -0.00051950
Te              8.55109040      0.00000000      6.27622341      52     -0.00000000      0.00000000      0.00051950
Te              8.55108826      2.46848841     26.15636796      52     -0.00000000      0.00000000      0.00051950
Te             10.68886513      1.23424235     16.21628077      52     -0.00000000      0.00000000      0.00051950
Te             10.68886513      1.23424235      9.94005736      52      0.00000000      0.00000000      0.00000000
Te              8.55108826      2.46848841     19.88014456      52      0.00000000      0.00000000     -0.00000000
Te              8.55109040      0.00000000      0.00000000      52      0.00000000      0.00000000     -0.00000000
Sb              8.55109253      4.93697310     21.83427157      51      0.00000000     -0.00000000     -0.00061283
Sb              6.41331566      6.17121916      1.95415685      51      0.00000000     -0.00000000     -0.00061283
Sb              6.41331780      3.70273075     11.89421421      51      0.00000000     -0.00000000     -0.00061283
Sb              6.41331780      3.70273075     17.92598771      51     -0.00000000      0.00000000      0.00061283
Sb              6.41331566      6.17121916      7.98593034      51     -0.00000000      0.00000000      0.00061283
Sb              8.55109253      4.93697310     27.86604507      51     -0.00000000      0.00000000      0.00061283
Te              8.55109253      4.93697310      3.66383396      52     -0.00000000     -0.00000000     -0.00051950
Te              6.41331566      6.17121916     13.60392115      52      0.00000000     -0.00000000     -0.00051950
Te              6.41331780      3.70273075     23.54397851      52     -0.00000000     -0.00000000     -0.00051950
Te              6.41331780      3.70273075      6.27622341      52     -0.00000000      0.00000000      0.00051950
Te              6.41331566      6.17121916     26.15636796      52     -0.00000000      0.00000000      0.00051950
Te              8.55109253      4.93697310     16.21628077      52     -0.00000000      0.00000000      0.00051950
Te              8.55109253      4.93697310      9.94005736      52      0.00000000      0.00000000      0.00000000
Te              6.41331566      6.17121916     19.88014456      52      0.00000000      0.00000000     -0.00000000
Te              6.41331780      3.70273075      0.00000000      52      0.00000000      0.00000000     -0.00000000
Sb              6.41331993      8.63970386     21.83427157      51      0.00000000     -0.00000000     -0.00061283
Sb              4.27554306      9.87394992      1.95415685      51      0.00000000     -0.00000000     -0.00061283
Sb              4.27554520      7.40546151     11.89421421      51      0.00000000     -0.00000000     -0.00061283
Sb              4.27554520      7.40546151     17.92598771      51     -0.00000000      0.00000000      0.00061283
Sb              4.27554306      9.87394992      7.98593034      51     -0.00000000      0.00000000      0.00061283
Sb              6.41331993      8.63970386     27.86604507      51     -0.00000000      0.00000000      0.00061283
Te              6.41331993      8.63970386      3.66383396      52     -0.00000000     -0.00000000     -0.00051950
Te              4.27554306      9.87394992     13.60392115      52      0.00000000     -0.00000000     -0.00051950
Te              4.27554520      7.40546151     23.54397851      52     -0.00000000     -0.00000000     -0.00051950
Te              4.27554520      7.40546151      6.27622341      52     -0.00000000      0.00000000      0.00051950
Te              4.27554306      9.87394992     26.15636796      52     -0.00000000      0.00000000      0.00051950
Te              6.41331993      8.63970386     16.21628077      52     -0.00000000      0.00000000      0.00051950
Te              6.41331993      8.63970386      9.94005736      52      0.00000000      0.00000000      0.00000000
Te              4.27554306      9.87394992     19.88014456      52      0.00000000      0.00000000     -0.00000000
Te              4.27554520      7.40546151      0.00000000      52      0.00000000      0.00000000     -0.00000000
