2
Lattice="2.7492630667336995 -1.7773627828166374e-16 2.7492630667336995 2.7492630667336995 2.7492630667336995 -1.942737578361269e-16 -6.997697264959346e-17 2.7492630667336995 2.7492630667336995" Properties=species:S:1:pos:R:3 n_minim_iter=3 pbc="T T T"
Si      -0.00000000      -0.00000000      -0.00000000
Si       1.37463153       1.37463153       1.37463153
