9
cutoff=-1.00000000 nneightol=1.20000000 pbc="T T T" Lattice="4.27200000       0.00000000       0.00000000      -2.13600000       3.69966053       0.00000000       0.00000000       0.00000000      17.63300000" Properties=species:S:1:pos:R:3:Z:I:1
Te              0.00000000      2.46641569      3.69781643      52
Te              2.13600000      1.23324484     13.93518357      52
Te              0.00000000      0.00000000      0.00000000      52
Sb              0.00000000      2.46641569     15.63165450      51
Sb              2.13600000      1.23324484      2.00134550      51
Sb              0.00000000      2.46641569      9.98680221      51
Sb              2.13600000      1.23324484      7.64619779      51
Sb              0.00000000      0.00000000      6.11688770      51
Sb              0.00000000      0.00000000     11.51611230      51
