10
Lattice="5.554747745039021 0.9458896541504307 2.570242040734577e-15 -1.632210921533115 4.841259754489985 -4.125068026838754e-14 -1.7922645842078848e-14 7.834072560077274e-14 9.903384322799782" Properties=species:S:1:pos:R:3 unique_starting_index=14 config_type=initial n_minim_iter=1 energy=-1636.4599056368509 free_energy=-1636.4599056368509 pbc="T T T"
Si       1.00576306       2.71718158       0.81713814
Si       2.91677376       3.06996783       0.81713814
Si       2.22738951       1.31470689       1.55310423
Si       1.69514731       4.47244252       1.55310423
Si       1.99747189       1.10134997       6.12747035
Si       1.92506493       4.68579944       6.12747035
Si       1.54145729       3.80365303       3.43248915
Si       2.38107953       1.98349638       3.43248915
Si       0.05971012       3.96916921       6.23401423
Si       3.86282670       1.81798020       6.23401423
10
Lattice="5.5520936838636645 0.9385420030073718 2.675569143045209e-15 -1.6342713711145676 4.820332765407386 -4.109908053114496e-14 -1.7867500106373374e-14 7.85216913149434e-14 9.924993591541941" Properties=species:S:1:pos:R:3 unique_starting_index=14 config_type=initial n_minim_iter=2 stress="-0.04390151806191678 0.03433325127871682 -2.502342880437385e-16 0.03433325127871682 -0.022802559066236343 1.9409958203708626e-15 -2.502342880437385e-16 1.9409958203708626e-15 0.02100258861740334" pbc="T T T"
Si       1.00431699       2.70574881       0.81932555
Si       2.91350532       3.05312596       0.81932555
Si       2.22748180       1.30784965       1.55533752
Si       1.69034051       4.45102512       1.55533752
Si       1.99649178       1.09519815       6.14097105
Si       1.92133053       4.66367662       6.14097105
Si       1.53859273       3.78571493       3.44036429
Si       2.37922958       1.97315984       3.44036429
Si       0.05734884       3.95117042       6.24785215
Si       3.86047347       1.80770435       6.24785215
10
Lattice="5.55947215424063 0.9257522338170748 2.7666803422100346e-15 -1.6462286065369747 4.812358908994937 -4.105798450933297e-14 -1.7918952571085667e-14 7.855904504471749e-14 9.931671443779083" Properties=species:S:1:pos:R:3 unique_starting_index=14 config_type=initial n_minim_iter=3 stress="-0.024170019239166722 -0.0025730801428529835 2.573855734894826e-15 -0.0025730801428529835 -0.02374209395771029 -8.785738551380357e-15 2.573855734894826e-15 -8.785738551380357e-15 0.028438728558667734" pbc="T T T"
Si       1.00116566       2.69940393       0.82026767
Si       2.91207788       3.03870721       0.82026767
Si       2.23069900       1.30126896       1.55562130
Si       1.68254455       4.43684218       1.55562130
Si       1.99776909       1.08900339       6.14525509
Si       1.91547445       4.64910775       6.14525509
Si       1.53344316       3.77491434       3.44258489
Si       2.37980039       1.96319680       3.44258489
Si       0.04946503       3.94167267       6.25236974
Si       3.86377851       1.79643847       6.25236974
10
Lattice="5.565327910432931 0.929010836330068 2.8348841780997154e-15 -1.6440192420390838 4.805958003302688 -4.110674552210884e-14 -1.7732374028970143e-14 7.833893904460372e-14 9.923534712402912" Properties=species:S:1:pos:R:3 unique_starting_index=14 config_type=initial n_minim_iter=4 stress="-0.022890566740172747 0.014046623720383549 1.8637034781849127e-16 0.014046623720383549 -0.06629420854214914 -7.406935330816005e-15 1.8637034781849127e-16 -7.406935330816005e-15 -0.0037543945035155733" pbc="T T T"
Si       1.00478436       2.69801830       0.81998873
Si       2.91652431       3.03695054       0.81998873
Si       2.23523900       1.30239801       1.55392259
Si       1.68606967       4.43257083       1.55392259
Si       2.00091443       1.08925785       6.14038366
Si       1.92039424       4.64571099       6.14038366
Si       1.53735238       3.77313802       3.43927177
Si       2.38395629       1.96183082       3.43927177
Si       0.05202705       3.93705656       6.24760803
Si       3.86928161       1.79791228       6.24760803
10
Lattice="5.574044853058156 0.940572602000572 2.8259700020854674e-15 -1.6372173920815636 4.810147774430001 -4.1084763802527827e-14 -1.7674881498932567e-14 7.863432623683011e-14 9.945751577167146" Properties=species:S:1:pos:R:3 unique_starting_index=14 config_type=initial n_minim_iter=5 stress="-0.0015566105383949033 0.022953181070246978 -1.0118672924104107e-16 0.022953181070246978 -0.03829997792563578 -3.863600677207533e-15 -1.0118672924104107e-16 -3.863600677207533e-15 0.044251285889051" pbc="T T T"
Si       1.01235835       2.70527359       0.82253210
Si       2.92446911       3.04544678       0.82253210
Si       2.24426232       1.30990957       1.55554052
Si       1.69256514       4.44081081       1.55554052
Si       2.00745685       1.09452787       6.15467880
Si       1.92937061       4.65619251       6.15467880
Si       1.54491463       3.78435465       3.44650988
Si       2.39191283       1.96636573       3.44650988
Si       0.05839386       3.94195460       6.26266238
Si       3.87843359       1.80876578       6.26266238
10
Lattice="5.558175535392519 0.9437026424714895 2.789301490148463e-15 -1.6312895028497207 4.818740196594481 -4.1153719716531624e-14 -1.7642006948115236e-14 7.861439877188549e-14 9.944872383482782" Properties=species:S:1:pos:R:3 unique_starting_index=14 config_type=initial n_minim_iter=6 stress="-0.04636367972720876 -0.0062957848716891866 5.518258048600937e-17 -0.0062957848716891866 -0.05511856757317298 -1.24080003029238e-14 5.518258048600937e-17 -1.24080003029238e-14 0.025796803403565653" pbc="T T T"
Si       1.01149222       2.71167452       0.82302781
Si       2.91539381       3.05076832       0.82302781
Si       2.24218097       1.31529246       1.55411793
Si       1.68470506       4.44715038       1.55411793
Si       2.00517693       1.09819209       6.15493555
Si       1.92170910       4.66425074       6.15493555
Si       1.54069041       3.79349145       3.44483190
Si       2.38619562       1.96895138       3.44483190
Si       0.05935305       3.94851286       6.26339792
Si       3.86753298       1.81392997       6.26339792
10
Lattice="5.561029524233951 0.9560048857754913 2.708800043640281e-15 -1.6233057909099198 4.829896400386009 -4.1222735497592683e-14 -1.7631127431796063e-14 7.866073188675177e-14 9.94867494005424" Properties=species:S:1:pos:R:3 unique_starting_index=14 config_type=initial n_minim_iter=7 stress="-0.034325625613009954 -0.0029889171309786626 5.479379501869124e-16 -0.0029889171309786626 -0.0019131522629814257 -1.2866918546396326e-14 5.479379501869124e-16 -1.2866918546396326e-14 0.02255318043120307" pbc="T T T"
Si       1.01723660       2.72251523       0.82310477
Si       2.92048713       3.06338605       0.82310477
Si       2.25191169       1.32569698       1.55377823
Si       1.68581204       4.46020430       1.55377823
Si       2.01122001       1.10779049       6.15872250
Si       1.92650372       4.67811080       6.15872250
Si       1.54882278       3.80474247       3.44353982
Si       2.38890095       1.98115882       3.44353982
Si       0.06605210       3.95874006       6.26814022
Si       3.87167163       1.82716123       6.26814022
10
Lattice="5.586832425062855 0.9582873894737666 2.7239079415435417e-15 -1.6300203136798455 4.836484797818638 -4.1257884853195606e-14 -1.7709226660969975e-14 7.891306495685e-14 9.974397611841516" Properties=species:S:1:pos:R:3 unique_starting_index=14 config_type=initial n_minim_iter=8 stress="-0.008791990464022528 -0.013228549577212855 1.9354293782734526e-15 -0.013228549577212855 0.00421517673151064 -1.1979022757559292e-14 1.9354293782734526e-15 -1.1979022757559292e-14 0.021131200886232035" pbc="T T T"
Si       1.02389083       2.72130448       0.82364709
Si       2.93292128       3.07346770       0.82364709
Si       2.26928728       1.33643022       1.55609534
Si       1.68752483       4.45834197       1.55609534
Si       2.02496842       1.10947117       6.17816310
Si       1.93184369       4.68530102       6.17816310
Si       1.55783850       3.80739563       3.44758714
Si       2.39897361       1.98737656       3.44758714
Si       0.06741063       3.96942086       6.28897191
Si       3.88940148       1.82535133       6.28897191
10
Lattice="5.607743140612573 0.9579426913619428 2.764503748090864e-15 -1.6369067708751122 4.839078188255184 -4.126922963600337e-14 -1.7735039580322845e-14 7.904326660956102e-14 9.985566673749089" Properties=species:S:1:pos:R:3 unique_starting_index=14 config_type=initial n_minim_iter=9 stress="0.011947851378995521 -0.016503308852601678 -2.4789596769999185e-16 -0.016503308852601678 0.016713623373673547 -1.700837474636616e-14 -2.4789596769999185e-16 -1.700837474636616e-14 -0.011758723960967034" pbc="T T T"
Si       1.02772708       2.71522975       0.82148489
Si       2.94310929       3.08179113       0.82148489
Si       2.28749467       1.33943907       1.55742142
Si       1.68334169       4.45758181       1.55742142
Si       2.03618393       1.10913558       6.18906399
Si       1.93465243       4.68788530       6.18906399
Si       1.56351435       3.80781059       3.44591652
Si       2.40732202       1.98921029       3.44591652
Si       0.06782311       3.97853501       6.30106340
Si       3.90301326       1.81848587       6.30106340
10
Lattice="5.617350207261455 0.9551700792498917 2.8239962058309123e-15 -1.6426140051748652 4.841825392756678 -4.1299311986754756e-14 -1.7687565443158e-14 7.900331636054504e-14 9.97862984442307" Properties=species:S:1:pos:R:3 unique_starting_index=14 config_type=initial n_minim_iter=10 stress="0.02431892973719466 0.006476489580530194 8.303739167083342e-16 0.006476489580530194 0.02706549921845293 -1.975609224004584e-14 8.303739167083342e-16 -1.975609224004584e-14 -0.008719288992749007" pbc="T T T"
Si       1.03231367       2.70317900       0.81832763
Si       2.94242253       3.09381647       0.81832763
Si       2.30187727       1.34163469       1.55034099
Si       1.67285893       4.45536078       1.55034099
Si       2.03653226       1.11498135       6.18955391
Si       1.93820394       4.68201412       6.18955391
Si       1.56355015       3.80756373       3.44052908
Si       2.41118605       1.98943174       3.44052908
Si       0.06339694       3.98655888       6.30347548
Si       3.91133926       1.81043659       6.30347548
10
Lattice="5.610992910157463 0.9323600073418693 3.178049903313995e-15 -1.6640026557853411 4.861653842412306 -4.1592339172601155e-14 -1.7146818341679684e-14 7.80858019513177e-14 9.873507564082349" Properties=species:S:1:pos:R:3 unique_starting_index=14 config_type=initial n_minim_iter=11 stress="0.03327291684592326 -0.004365954124411064 1.7629103502655822e-16 -0.004365954124411064 0.016516387041002653 -1.7475823908042023e-14 1.7629103502655822e-16 -1.7475823908042023e-14 -0.0008118231646499508" pbc="T T T"
Si       1.02098462       2.68463060       0.79615150
Si       2.92600563       3.10938324       0.79615150
Si       2.32011767       1.34088596       1.51637171
Si       1.62687258       4.45312789       1.51637171
Si       2.03810047       1.10951181       6.13368118
Si       1.90888978       4.68450203       6.13368118
Si       1.54599691       3.80333457       3.40900126
Si       2.40099334       1.99067928       3.40900126
Si       0.02575733       4.00720263       6.25421223
Si       3.92123292       1.78681122       6.25421223
10
Lattice="5.589015790756324 0.8951432057888483 3.534250794280398e-15 -1.6887870098698885 4.854640260810276 -4.162550659225673e-14 -1.688862463230594e-14 7.774089807638863e-14 9.833809809765294" Properties=species:S:1:pos:R:3 unique_starting_index=14 config_type=initial n_minim_iter=12 stress="0.01582266416416017 -0.009976575614586982 -3.3422970345480383e-16 -0.009976575614586982 0.080895390524378 -1.8051951235770603e-14 -3.3422970345480383e-16 -1.8051951235770603e-14 0.014384155785922823" pbc="T T T"
Si       0.99759712       2.62047088       0.74513368
Si       2.90263165       3.12931259       0.74513368
Si       2.35779765       1.34841565       1.48620475
Si       1.54243113       4.40136781       1.48620475
Si       2.05400552       1.11551595       6.13101344
Si       1.84622326       4.63426752       6.13101344
Si       1.51574357       3.78119198       3.39140139
Si       2.38448520       1.96859148       3.39140139
Si      -0.05131347       4.01410487       6.28285327
Si       3.95154224       1.73567860       6.28285327
10
Lattice="5.605766988694451 0.8623426160417669 3.7841168521463164e-15 -1.71359695893016 4.8035511570437475 -4.123293158216837e-14 -1.7041182992377008e-14 7.81027612341744e-14 9.87464698844831" Properties=species:S:1:pos:R:3 unique_starting_index=14 config_type=initial n_minim_iter=13 stress="0.03518029058380459 -0.009381056530343872 -4.678501848033507e-16 -0.009381056530343872 0.004025548205170364 -2.1166064832791185e-14 -4.678501848033507e-16 -2.1166064832791185e-14 0.04742442621524511" pbc="T T T"
Si       1.00318860       2.55556976       0.69635114
Si       2.88898143       3.11032401       0.69635114
Si       2.39014582       1.33834222       1.48036723
Si       1.50202421       4.32755155       1.48036723
Si       2.08246352       1.12858041       6.17270059
Si       1.80970650       4.53731337       6.17270059
Si       1.51371292       3.73674126       3.39746327
Si       2.37845711       1.92915251       3.39746327
Si      -0.11369201       3.99873067       6.36462552
Si       4.00586204       1.66716310       6.36462552
10
Lattice="5.602111746291815 0.8663659900224835 3.835373511212088e-15 -1.7083679548692678 4.799743658568893 -4.123713716806253e-14 -1.6801454059577772e-14 7.775646377950038e-14 9.835047988738173" Properties=species:S:1:pos:R:3 unique_starting_index=14 config_type=initial n_minim_iter=14 stress="-0.025278873972911994 0.028922806008953472 -4.3524232864223194e-15 0.028922806008953472 -0.05264891482512114 -1.67209474283839e-14 -4.3524232864223194e-15 -1.67209474283839e-14 -0.014070907933487508" pbc="T T T"
Si       1.02361554       2.55822226       0.66920826
Si       2.87012825       3.10788739       0.66920826
Si       2.38546381       1.33910665       1.47076566
Si       1.50827998       4.32700300       1.47076566
Si       2.09582265       1.14045357       6.15047713
Si       1.79792114       4.52565608       6.15047713
Si       1.52120386       3.73984901       3.38441155
Si       2.37253993       1.92626063       3.38441155
Si      -0.13064947       4.02060681       6.36401493
Si       4.02439326       1.64550284       6.36401493
10
Lattice="5.657621285719383 0.8710692434245751 4.0409083139902564e-15 -1.719369778368015 4.79263791342006 -4.127697329830115e-14 -1.6433943333698136e-14 7.729493375148081e-14 9.78498542277339" Properties=species:S:1:pos:R:3 unique_starting_index=14 config_type=initial n_minim_iter=15 stress="-0.009787066918329446 0.03174442853402725 -4.837848279078527e-15 0.03174442853402725 -0.030591400514869145 -1.8843319910775635e-14 -4.837848279078527e-15 -1.8843319910775635e-14 -0.025937536315151003" pbc="T T T"
Si       1.04255237       2.55217648       0.65141219
Si       2.89569913       3.11153068       0.65141219
Si       2.41467984       1.34306527       1.45544899
Si       1.52357167       4.32064189       1.45544899
Si       2.13671872       1.15685237       6.12092552
Si       1.80153279       4.50685479       6.12092552
Si       1.54490688       3.74058457       3.37051465
Si       2.39334462       1.92312259       3.37051465
Si      -0.13516070       4.03874794       6.34875430
Si       4.07341220       1.62495922       6.34875430
10
Lattice="5.738118881442809 0.8819916722901607 4.2505121666798195e-15 -1.7341786877653298 4.796601395265975 -4.142631997021036e-14 -1.6085107123364755e-14 7.699071277106815e-14 9.757830398764769" Properties=species:S:1:pos:R:3 unique_starting_index=14 config_type=initial n_minim_iter=16 stress="0.01642372921062442 -0.009757275311329758 2.0164565541344037e-15 -0.009757275311329758 0.009828061948657086 -1.8306323873181723e-14 2.0164565541344037e-15 -1.8306323873181723e-14 -0.0006218246466553008" pbc="T T T"
Si       1.06808205       2.56497915       0.64614913
Si       2.93585814       3.11361392       0.64614913
Si       2.44188352       1.34724783       1.45015924
Si       1.56205667       4.33134524       1.45015924
Si       2.19027800       1.17511292       6.10131899
Si       1.81366219       4.50348014       6.10131899
Si       1.58234479       3.75107339       3.36616654
Si       2.42159540       1.92751968       3.36616654
Si      -0.12713025       4.07404877       6.33345560
Si       4.13107044       1.60454430       6.33345560
10
Lattice="5.75274558005517 0.8744225533582524 4.535456945946154e-15 -1.7445011237128023 4.793240114944677 -4.153742682227403e-14 -1.565412646686617e-14 7.665361421149083e-14 9.730255465495448" Properties=species:S:1:pos:R:3 unique_starting_index=14 config_type=initial n_minim_iter=17 stress="0.026923111096404224 -0.0015027919944636048 3.171307024065348e-15 -0.0015027919944636048 0.025178265419240384 -2.376362926564101e-14 3.171307024065348e-15 -2.376362926564101e-14 -0.0039314563815608244" pbc="T T T"
Si       1.07482136       2.56501264       0.63689914
Si       2.93342309       3.10265003       0.63689914
Si       2.43633786       1.33764913       1.44247204
Si       1.57190659       4.33001354       1.44247204
Si       2.21001590       1.18547195       6.08398196
Si       1.79822855       4.48219071       6.08398196
Si       1.58687123       3.74600443       3.35751515
Si       2.42137322       1.92165824       3.35751515
Si      -0.15183323       4.09062592       6.32580485
Si       4.16007768       1.57703675       6.32580485
10
Lattice="5.763751256742068 0.8725016998295928 4.784639239039649e-15 -1.7481353845635639 4.785759819253644 -4.1614779784269195e-14 -1.521069790126217e-14 7.637695828065397e-14 9.711703505942983" Properties=species:S:1:pos:R:3 unique_starting_index=14 config_type=initial n_minim_iter=18 stress="-0.010667630120826586 0.007048871074561538 2.567221398430724e-15 0.007048871074561538 -0.021810418438964915 -3.29643676834676e-14 2.567221398430724e-15 -3.29643676834676e-14 -0.021726818014362846" pbc="T T T"
Si       1.07620674       2.58393894       0.64875969
Si       2.93940913       3.07432257       0.64875969
Si       2.40438819       1.31749524       1.44273615
Si       1.61122768       4.34076628       1.44273615
Si       2.22478578       1.19093183       6.06601086
Si       1.79083009       4.46732969       6.06601086
Si       1.59175743       3.74149758       3.35258075
Si       2.42385844       1.91676394       3.35258075
Si      -0.16043204       4.09493530       6.30255875
Si       4.17604791       1.56332622       6.30255875
10
Lattice="5.735373363920114 0.8517181219511935 5.054850059698938e-15 -1.757810406981331 4.785170232950176 -4.171465977129761e-14 -1.4958315457588453e-14 7.642455426622125e-14 9.728444893996919" Properties=species:S:1:pos:R:3 unique_starting_index=14 config_type=initial n_minim_iter=19 stress="0.008286752984329014 0.0073488222220722725 1.5453080904713174e-15 0.0073488222220722725 0.0023117651337199174 -2.950398891590351e-14 1.5453080904713174e-15 -2.950398891590351e-14 0.002295121543225257" pbc="T T T"
Si       1.05738753       2.58235974       0.65452001
Si       2.92017543       3.05452862       0.65452001
Si       2.37344330       1.29730173       1.44437845
Si       1.60411965       4.33958663       1.44437845
Si       2.22193386       1.18860767       6.07735331
Si       1.75562909       4.44828069       6.07735331
Si       1.56960043       3.72974596       3.35196909
Si       2.40796252       1.90714240       3.35196909
Si      -0.20352367       4.10200382       6.31513144
Si       4.18108662       1.53488453       6.31513144
10
Lattice="5.707988799420037 0.8595182216195386 5.0604523753824666e-15 -1.7448474994329917 4.796222275167458 -4.1841799833990854e-14 -1.4796895004989357e-14 7.654241741651944e-14 9.750138808486767" Properties=species:S:1:pos:R:3 unique_starting_index=14 config_type=initial n_minim_iter=20 stress="-0.002400703858954886 -0.007992612187765126 2.6668224128891902e-15 -0.007992612187765126 0.006016835717825972 -2.5591124406755746e-14 2.6668224128891902e-15 -2.5591124406755746e-14 0.0055374840920895925" pbc="T T T"
Si       1.04664198       2.59463111       0.66916200
Si       2.91649932       3.06110939       0.66916200
Si       2.36097199       1.30105999       1.44901822
Si       1.60216930       4.35468051       1.44901822
Si       2.20284433       1.19058799       6.09064763
Si       1.76029697       4.46515250       6.09064763
Si       1.55981982       3.73818898       3.35431368
Si       2.40332148       1.91755152       3.35431368
Si      -0.19575485       4.11153571       6.32000048
Si       4.15889614       1.54420479       6.32000048
10
Lattice="5.716311621066637 0.8704406488047748 5.109819303243805e-15 -1.738193530314078 4.798688299396198 -4.1919432807594125e-14 -1.457086054845448e-14 7.648967266256323e-14 9.751452096080259" Properties=species:S:1:pos:R:3 unique_starting_index=14 config_type=initial n_minim_iter=21 stress="0.002450037483087307 -0.004047349442144209 1.784261709576359e-15 -0.004047349442144209 0.012968877476802497 -2.649585369587724e-14 1.784261709576359e-15 -2.649585369587724e-14 -0.0003183301529824776" pbc="T T T"
Si       1.05025373       2.60005366       0.67033150
Si       2.92786435       3.06907529       0.67033150
Si       2.36997908       1.30956438       1.44777043
Si       1.60813900       4.35956457       1.44777043
Si       2.21116255       1.19888928       6.09155274
Si       1.76695554       4.47023967       6.09155274
Si       1.56527624       3.74353836       3.35254644
Si       2.41284185       1.92559058       3.35254644
Si      -0.18994402       4.12394566       6.32334968
Si       4.16806211       1.54518328       6.32334968
