24
Lattice="11.369589053870836 -3.917755009297252e-12 4.109329709088275e-14 5.684794526938813 9.846352951239664 -5.275302327056954e-14 5.684794526936525 3.2821176504119665 6.870086112212274" Properties=species:S:1:pos:R:3 unique_starting_index=24 config_type=initial n_minim_iter=1 energy=-3954.6967160810673 free_energy=-3954.6967160810673 pbc="T T T"
Si      12.79905665       5.33073674       6.56064830
Si      11.72309521       8.41893984       6.56064830
Si       9.58661360       5.94302835       6.56064830
Si      12.58294130       3.55788949       5.65672784
Si      13.36648364       9.11820207       5.65672784
Si       8.15934052       7.01661336       5.65672784
Si      14.22781910       3.97973232       0.73522347
Si      12.17871813      10.33178662       0.73522347
Si       7.70222823       5.38118598       0.73522347
Si      12.50358684       8.51053208      -0.03221989
Si       9.11704657       6.57315780      -0.03221989
Si      12.48813205       4.60901504      -0.03221989
Si      13.44391991      11.10645912       5.43137488
Si       6.39874128       6.08954661       5.43137488
Si      14.26610428       2.49669920       5.43137488
Si      15.31628797       3.65126331       6.68036899
Si      11.91894621      11.43866283       6.68036899
Si       6.87353128       4.60277879       6.68036899
Si      12.50005021      12.88761638       5.43078181
Si       5.32814869       4.38155284       5.43078181
Si      16.28056656       2.42353570       5.43078181
Si       6.33852381       2.32858907       1.51268889
Si       6.18370873       4.32502811       1.51268889
Si       4.53214934       3.19273479       1.51268889
24
Lattice="11.368974330578306 -3.9180062278570055e-12 4.104077212118292e-14 5.684487165292546 9.845820585252035 -5.279819389952983e-14 5.68448716529026 3.2819401950827576 6.8698438369051225" Properties=species:S:1:pos:R:3 unique_starting_index=24 config_type=initial n_minim_iter=2 stress="-0.00021107573802917444 1.7790101046342852e-14 -2.661397499539726e-15 1.7790101046342852e-14 -0.00021107573803591037 -4.872058154468243e-15 -2.661397499539726e-15 -4.872058154468243e-15 -0.0005681150254228329" pbc="T T T"
Si      12.79836213       5.33044323       6.56041889
Si      11.72246721       8.41848512       6.56041889
Si       9.58609195       5.94271184       6.56041889
Si      12.58226289       3.55770415       5.65652681
Si      13.36575391       9.11770723       5.65652681
Si       8.15890449       7.01622882       5.65652681
Si      14.22704231       3.97951507       0.73519019
Si      12.17806523      10.33122253       0.73519019
Si       7.70181375       5.38090259       0.73519019
Si      12.50290788       8.51007417      -0.03221294
Si       9.11655317       6.57279876      -0.03221294
Si      12.48746024       4.60876726      -0.03221294
Si      13.44319097      11.10585876       5.43118588
Si       6.39839623       6.08921551       5.43118588
Si      14.26533409       2.49656593       5.43118588
Si      15.31546146       3.65107007       6.68013480
Si      11.91829737      11.43804366       6.68013480
Si       6.87316246       4.60252646       6.68013480
Si      12.49937610      12.88692355       5.43058993
Si       5.32785630       4.38131546       5.43058993
Si      16.27968889       2.42340118       5.43058993
Si       6.33817403       2.32846853       1.51263312
Si       6.18337328       4.32478546       1.51263312
Si       4.53191248       3.19256561       1.51263312
24
Lattice="11.368351435424488 -3.914406688052282e-12 4.1044431560277576e-14 5.684175717715633 9.845281142224943 -5.280145775751884e-14 5.684175717713351 3.2817603807403937 6.870422511883465" Properties=species:S:1:pos:R:3 unique_starting_index=24 config_type=initial n_minim_iter=3 stress="-0.0006851843300528285 2.2702870803946757e-14 -2.7264350906333424e-15 2.2702870803946757e-14 -0.0006851843300388481 -3.1668964257715372e-15 -2.7264350906333424e-15 -3.1668964257715372e-15 0.0015241673421779241" pbc="T T T"
Si      12.79763683       5.33010491       6.56099676
Si      11.72187707       8.41802615       6.56099676
Si       9.58553871       5.94243025       6.56099676
Si      12.58157567       3.55761657       5.65693011
Si      13.36492758       9.11715587       5.65693011
Si       8.15854935       7.01578887       5.65693011
Si      14.22617019       3.97926922       0.73517573
Si      12.17746841      10.33059018       0.73517573
Si       7.70141400       5.38070191       0.73517573
Si      12.50218367       8.50959536      -0.03212418
Si       9.11608414       6.57241098      -0.03212418
Si      12.48678479       4.60855496      -0.03212418
Si      13.44245285      11.10527335       5.43165634
Si       6.39802648       6.08886899       5.43165634
Si      14.26457327       2.49641897       5.43165634
Si      15.31462621       3.65094991       6.68077316
Si      11.91757327      11.43738040       6.68077316
Si       6.87285313       4.60223101       6.68077316
Si      12.49876917      12.88626052       5.43100546
Si       5.32748819       4.38112136       5.43100546
Si      16.27879525       2.42317943       5.43100546
Si       6.33774367       2.32839289       1.51274663
Si       6.18303108       4.32445058       1.51274663
Si       4.53175071       3.19243670       1.51274663
24
Lattice="11.368659987885902 -3.9127916110987525e-12 4.109833764821409e-14 5.6843299939463385 9.845548356494929 -5.281873558725029e-14 5.684329993944058 3.2818494521637223 6.869740443761299" Properties=species:S:1:pos:R:3 unique_starting_index=24 config_type=initial n_minim_iter=4 stress="0.00010135130626947378 1.9231155315017255e-14 1.2652129059449615e-14 1.9231155315017255e-14 0.00010135130629616992 -2.3651921366304838e-14 1.2652129059449615e-14 -2.3651921366304838e-14 -0.00046295464151713614" pbc="T T T"
Si      12.79796233       5.33022677       6.56038211
Si      11.72222588       8.41824711       6.56038211
Si       9.58579005       5.94262185       6.56038211
Si      12.58191011       3.55777684       5.65632132
Si      13.36523867       9.11736537       5.65632132
Si       8.15882949       7.01595353       5.65632132
Si      14.22648897       3.97934803       0.73503460
Si      12.17785787      10.33082684       0.73503460
Si       7.70163142       5.38092086       0.73503460
Si      12.50249258       8.50981974      -0.03206045
Si       9.11635248       6.57256632      -0.03206045
Si      12.48713321       4.60870968      -0.03206045
Si      13.44281181      11.10559855       5.43113228
Si       6.39818247       6.08901725       5.43113228
Si      14.26498398       2.49647993       5.43113228
Si      15.31504862       3.65110180       6.68015928
Si      11.91784762      11.43767027       6.68015928
Si       6.87308202       4.60232366       6.68015928
Si      12.49916958      12.88663653       5.43044008
Si       5.32757945       4.38128012       5.43044008
Si      16.27922923       2.42317909       5.43044008
Si       6.33786721       2.32847014       1.51257622
Si       6.18321095       4.32451894       1.51257622
Si       4.53191011       3.19255829       1.51257622
24
Lattice="11.368339106938533 -3.9133281905172075e-12 4.109692443150675e-14 5.684169553472655 9.845270465442916 -5.281385720722218e-14 5.6841695534703724 3.281756821813051 6.86972157597198" Properties=species:S:1:pos:R:3 unique_starting_index=24 config_type=initial n_minim_iter=5 stress="-2.5971636542143295e-05 2.0681711662224797e-14 1.4903677606458015e-14 2.0681711662224797e-14 -2.597163651476174e-05 -3.256822336973552e-14 1.4903677606458015e-14 -3.256822336973552e-14 -0.0002901402509638086" pbc="T T T"
Si      12.79755051       5.33010579       6.56052973
Si      11.72189480       8.41795096       6.56052973
Si       9.58557030       5.94248320       6.56052973
Si      12.58157394       3.55758971       5.65603518
Si      13.36492704       9.11716780       5.65603518
Si       8.15851464       7.01578244       5.65603518
Si      14.22596671       3.97906463       0.73492079
Si      12.17772267      10.33051625       0.73492079
Si       7.70132624       5.38095907       0.73492079
Si      12.50203459       8.50961236      -0.03198003
Si       9.11611930       6.57227338      -0.03198003
Si      12.48686172       4.60865421      -0.03198003
Si      13.44236382      11.10533025       5.43122901
Si       6.39799706       6.08876343       5.43122901
Si      14.26465474       2.49644627       5.43122901
Si      15.31466861       3.65107429       6.68024725
Si      11.91741969      11.43735492       6.68024725
Si       6.87292732       4.60211074       6.68024725
Si      12.49883260      12.88627966       5.43038524
Si       5.32741523       4.38116672       5.43038524
Si      16.27876779       2.42309357       5.43038524
Si       6.33758513       2.32823371       1.51253046
Si       6.18323587       4.32439286       1.51253046
Si       4.53168596       3.19264291       1.51253046
24
Lattice="11.368296585806652 -3.917427898287347e-12 4.1096698153685034e-14 5.68414829290672 9.845233641062503 -5.281500508402721e-14 5.684148292904432 3.2817445470195805 6.8695358410348035" Properties=species:S:1:pos:R:3 unique_starting_index=24 config_type=initial n_minim_iter=6 stress="-0.00011822579117120532 2.901823782873551e-14 2.098335115605359e-14 2.901823782873551e-14 -0.00011822579115475549 -1.7965575716250925e-14 2.098335115605359e-14 -1.7965575716250925e-14 -7.125264824409588e-05" pbc="T T T"
Si      12.79742076       5.32970260       6.56041408
Si      11.72222381       8.41804019       6.56041408
Si       9.58524348       5.94272352       6.56041408
Si      12.58141676       3.55744763       5.65532318
Si      13.36504364       9.11710272       5.65532318
Si       8.15842765       7.01591596       5.65532318
Si      14.22566328       3.97816346       0.73438975
Si      12.17856978      10.33070405       0.73438975
Si       7.70065500       5.38159879       0.73438975
Si      12.50160201       8.50964174      -0.03203859
Si       9.11622510       6.57188406      -0.03203859
Si      12.48706094       4.60894050      -0.03203859
Si      13.44206003      11.10567807       5.43154551
Si       6.39776269       6.08832643       5.43154551
Si      14.26506534       2.49646180       5.43154551
Si      15.31496852       3.65117301       6.68039538
Si      11.91709920      11.43756529       6.68039538
Si       6.87282034       4.60172800       6.68039538
Si      12.49867221      12.88601447       5.43022297
Si       5.32764005       4.38116041       5.43022297
Si      16.27857580       2.42329142       5.43022297
Si       6.33687128       2.32763574       1.51278089
Si       6.18406813       4.32407365       1.51278089
Si       4.53150376       3.19352328       1.51278089
24
Lattice="11.369070259070346 -3.921520569467561e-12 4.1095634141941055e-14 5.684535129538569 9.845903661763087 -5.2819737327609434e-14 5.684535129536278 3.281967887253106 6.868563612508592" Properties=species:S:1:pos:R:3 unique_starting_index=24 config_type=initial n_minim_iter=7 stress="-9.20167615907763e-05 4.0632973562128865e-14 1.8165665721596535e-14 4.0632973562128865e-14 -9.201676160736484e-05 -3.64600269295476e-14 1.8165665721596535e-14 -3.64600269295476e-14 2.0512301071297334e-05" pbc="T T T"
Si      12.79810844       5.32952020       6.55962052
Si      11.72358528       8.41872694       6.55962052
Si       9.58551535       5.94355921       6.55962052
Si      12.58241947       3.55734754       5.65396623
Si      13.36617631       9.11802113       5.65396623
Si       8.15861330       7.01643768       5.65396623
Si      14.22649619       3.97745047       0.73393018
Si      12.18031814      10.33178187       0.73393018
Si       7.70039475       5.38257400       0.73393018
Si      12.50208081       8.51023162      -0.03238534
Si       9.11702221       6.57200378      -0.03238534
Si      12.48810606       4.60957095      -0.03238534
Si      13.44286227      11.10647557       5.43123729
Si       6.39821826       6.08862244       5.43123729
Si      14.26612855       2.49670833       5.43123729
Si      15.31650231       3.65169030       6.67989059
Si      11.91743167      11.43863495       6.67989059
Si       6.87327510       4.60148110       6.67989059
Si      12.49954189      12.88681041       5.42946461
Si       5.32806326       4.38151561       5.42946461
Si      16.27960393       2.42348033       5.42946461
Si       6.33643272       2.32745921       1.51278402
Si       6.18521396       4.32378210       1.51278402
Si       4.53195701       3.19466137       1.51278402
24
Lattice="11.370557488812752 -3.921060207158615e-12 4.109660486685436e-14 5.685278744409772 9.847191640501276 -5.2841575709998095e-14 5.685278744407481 3.28239721349917 6.867298016373791" Properties=species:S:1:pos:R:3 unique_starting_index=24 config_type=initial n_minim_iter=8 stress="-2.0462852884022502e-05 4.5441406958901936e-14 1.9023367743977935e-14 4.5441406958901936e-14 -2.0462852889299006e-05 -2.8873207600364836e-14 1.9023367743977935e-14 -2.8873207600364836e-14 6.111518976409517e-05" pbc="T T T"
Si      12.79946827       5.32952357       6.55861701
Si      11.72587691       8.41990290       6.55861701
Si       9.58632558       5.94495584       6.55861701
Si      12.58426687       3.55778537       5.65228699
Si      13.36784790       9.11940211       5.65228699
Si       8.15955600       7.01719482       5.65228699
Si      14.22816003       3.97720584       0.73374149
Si      12.18267253      10.33334512       0.73374149
Si       7.70083820       5.38383134       0.73374149
Si      12.50339823       8.51127783      -0.03276955
Si       9.11843191       6.57262159      -0.03276955
Si      12.48984063       4.61048288      -0.03276955
Si      13.44440859      11.10797939       5.43080518
Si       6.39911721       6.08920968       5.43080518
Si      14.26814496       2.49719323       5.43080518
Si      15.31874127       3.65219979       6.67894643
Si      11.91884541      11.44031920       6.67894643
Si       6.87408409       4.60186331       6.67894643
Si      12.50093219      12.88841125       5.42846363
Si       5.32895620       4.38191922       5.42846363
Si      16.28178238       2.42405183       5.42846363
Si       6.33657274       2.32756375       1.51252642
Si       6.18654065       4.32385109       1.51252642
Si       4.53272114       3.19577582       1.51252642
24
Lattice="11.372237631154084 -3.920422075448261e-12 4.1100752868265145e-14 5.686118815580438 9.848646686450843 -5.286604518438409e-14 5.686118815578147 3.282882228815692 6.866649135303838" Properties=species:S:1:pos:R:3 unique_starting_index=24 config_type=initial n_minim_iter=9 stress="6.455688026816637e-05 3.955745302503574e-14 -5.846815082073693e-15 3.955745302503574e-14 6.455688030209181e-05 -2.5025406490153487e-14 -5.846815082073693e-15 -2.5025406490153487e-14 0.00022326422538552644" pbc="T T T"
Si      12.80104342       5.32967303       6.55812985
Si      11.72832018       8.42119228       6.55812985
Si       9.58734759       5.94642708       6.55812985
Si      12.58629498       3.55819022       5.65131480
Si      13.36984352       9.12095609       5.65131480
Si       8.16057269       7.01814609       5.65131480
Si      14.22973459       3.97732642       0.73361490
Si      12.18514112      10.33464843       0.73361490
Si       7.70183549       5.38531754       0.73361490
Si      12.50495444       8.51288437      -0.03324639
Si       9.11962278       6.57316603      -0.03324639
Si      12.49213397       4.61124199      -0.03324639
Si      13.44627295      11.10970162       5.43078410
Si       6.40005382       6.08996316       5.43078410
Si      14.27038442       2.49762762       5.43078410
Si      15.32119311       3.65278818       6.67857503
Si      11.92047022      11.44214836       6.67857503
Si       6.87504786       4.60235585       6.67857503
Si      12.50256538      12.89027391       5.42799146
Si       5.32988677       4.38240228       5.42799146
Si      16.28425904       2.42461620       5.42799146
Si       6.33697901       2.32775407       1.51243375
Si       6.18785284       4.32410777       1.51243375
Si       4.53352290       3.19678387       1.51243375
24
Lattice="11.372502659526067 -3.917787300250796e-12 4.1105720536083784e-14 5.686251329766428 9.848876207753712 -5.287129861081113e-14 5.686251329764137 3.2829587359166474 6.866618006938549" Properties=species:S:1:pos:R:3 unique_starting_index=24 config_type=initial n_minim_iter=10 stress="7.643097486816189e-05 3.7101794414671626e-14 -1.529531297939389e-14 3.7101794414671626e-14 7.64309749160731e-05 -1.9172082540945137e-14 -1.529531297939389e-14 -1.9172082540945137e-14 0.00024209439488404353" pbc="T T T"
Si      12.80126459       5.32969494       6.55810331
Si      11.72872068       8.42137287       6.55810331
Si       9.58752100       5.94668363       6.55810331
Si      12.58664339       3.55830089       5.65118384
Si      13.37010353       9.12120248       5.65118384
Si       8.16075936       7.01824807       5.65118384
Si      14.22994803       3.97735460       0.73362309
Si      12.18554005      10.33481918       0.73362309
Si       7.70201821       5.38557765       0.73362309
Si      12.50519556       8.51311477      -0.03334754
Si       9.11983275       6.57325965      -0.03334754
Si      12.49247797       4.61137702      -0.03334754
Si      13.44658998      11.10998402       5.43085348
Si       6.40018080       6.09009650       5.43085348
Si      14.27073550       2.49767091       5.43085348
Si      15.32165782       3.65290609       6.67853079
Si      11.92066581      11.44249186       6.67853079
Si       6.87518265       4.60235349       6.67853079
Si      12.50285911      12.89058321       5.42807458
Si       5.33000211       4.38250201       5.42807458
Si      16.28464506       2.42466623       5.42807458
Si       6.33704280       2.32772406       1.51243108
Si       6.18811196       4.32417802       1.51243108
Si       4.53359753       3.19697315       1.51243108
24
Lattice="11.372598818037215 -3.914261485748963e-12 4.110688392461014e-14 5.686299409022001 9.848959483467155 -5.287564817088424e-14 5.686299409019712 3.2829864944877976 6.867097007605521" Properties=species:S:1:pos:R:3 unique_starting_index=24 config_type=initial n_minim_iter=11 stress="1.2607449324562873e-06 3.528306941193313e-14 -1.0900563736435299e-15 3.528306941193313e-14 1.2607449441605367e-06 -1.728963356203874e-14 -1.0900563736435299e-15 -1.728963356203874e-14 0.00015617178834022048" pbc="T T T"
Si      12.80092028       5.32985307       6.55852215
Si      11.72894821       8.42099562       6.55852215
Si       9.58792627       5.94706930       6.55852215
Si      12.58715865       3.55848363       5.65146862
Si      13.36987996       9.12155734       5.65146862
Si       8.16075615       7.01787702       5.65146862
Si      14.22953831       3.97723500       0.73350552
Si      12.18604080      10.33452416       0.73350552
Si       7.70221564       5.38615882       0.73350552
Si      12.50521059       8.51300756      -0.03407060
Si       9.12011040       6.57332628      -0.03407060
Si      12.49247376       4.61158416      -0.03407060
Si      13.44678844      11.11023548       5.43177950
Si       6.40005611       6.09014265       5.43177950
Si      14.27095020       2.49753985       5.43177950
Si      15.32169112       3.65307336       6.67916778
Si      11.92069661      11.44243706       6.67916778
Si       6.87540702       4.60240756       6.67916778
Si      12.50305014      12.89044152       5.42888318
Si       5.33022162       4.38273829       5.42888318
Si      16.28452300       2.42473819       5.42888318
Si       6.33655135       2.32734318       1.51242590
Si       6.18878370       4.32394285       1.51242590
Si       4.53356148       3.19767248       1.51242590
24
Lattice="11.373066935221184 -3.916090917345492e-12 4.11119648669949e-14 5.686533467613987 9.84936488484042 -5.2876757380933605e-14 5.686533467611696 3.2831216282788844 6.867961307061054" Properties=species:S:1:pos:R:3 unique_starting_index=24 config_type=initial n_minim_iter=12 stress="2.2833498360861865e-05 4.333457538482988e-14 -1.8770119189424997e-14 4.333457538482988e-14 2.283349837256368e-05 -5.3650867712646296e-15 -1.8770119189424997e-14 -5.3650867712646296e-15 -8.210110209052369e-05" pbc="T T T"
Si      12.80052027       5.33042288       6.55931376
Si      11.72959097       8.42036430       6.55931376
Si       9.58908786       5.94794161       6.55931376
Si      12.58835909       3.55899533       5.65201434
Si      13.36977282       9.12234110       5.65201434
Si       8.16106719       7.01739236       5.65201434
Si      14.22909278       3.97709346       0.73322663
Si      12.18732237      10.33420909       0.73322663
Si       7.70278395       5.38742624       0.73322663
Si      12.50556244       8.51294550      -0.03560617
Si       9.12092445       6.57366202      -0.03560617
Si      12.49271221       4.61212128      -0.03560617
Si      13.44767585      11.11113337       5.43350519
Si       6.39977105       6.09046223       5.43350519
Si      14.27175220       2.49713319       5.43350519
Si      15.32219130       3.65372436       6.68045109
Si      11.92081897      11.44254473       6.68045109
Si       6.87618883       4.60245970       6.68045109
Si      12.50328773      12.89080820       5.43046463
Si       5.33072150       4.38276071       5.43046463
Si      16.28518987       2.42515988       5.43046463
Si       6.33564849       2.32662482       1.51233531
Si       6.19032536       4.32352013       1.51233531
Si       4.53362486       3.19921896       1.51233531
24
Lattice="11.37305790717359 -3.9180247688323804e-12 4.1110662159632336e-14 5.6865289535901935 9.849357066321858 -5.287947042658974e-14 5.6865289535878984 3.28311902210603 6.8680786793275805" Properties=species:S:1:pos:R:3 unique_starting_index=24 config_type=initial n_minim_iter=13 stress="1.2169327521494038e-05 5.051783500651449e-14 -4.237858591336903e-14 5.051783500651449e-14 1.2169327558224417e-05 6.154619860746673e-15 -4.237858591336903e-14 6.154619860746673e-15 -9.787613717070974e-05" pbc="T T T"
Si      12.80038359       5.33052486       6.55941943
Si      11.72955294       8.42019495       6.55941943
Si       9.58923548       5.94799335       6.55941943
Si      12.58839224       3.55905832       5.65204303
Si      13.36968364       9.12233831       5.65204303
Si       8.16109614       7.01731652       5.65204303
Si      14.22896105       3.97705790       0.73323917
Si      12.18740098      10.33411279       0.73323917
Si       7.70280998       5.38754246       0.73323917
Si      12.50553031       8.51292019      -0.03594123
Si       9.12094439       6.57364684      -0.03594123
Si      12.49269732       4.61214612      -0.03594123
Si      13.44771668      11.11128664       5.43386696
Si       6.39959984       6.09042095       5.43386696
Si      14.27185550       2.49700556       5.43386696
Si      15.32210273       3.65380917       6.68060679
Si      11.92077175      11.44242562       6.68060679
Si       6.87629754       4.60247836       6.68060679
Si      12.50332071      12.89084518       5.43073007
Si       5.33065493       4.38277078       5.43073007
Si      16.28519638       2.42509720       5.43073007
Si       6.33533486       2.32648984       1.51228684
Si       6.19059004       4.32331601       1.51228684
Si       4.53366026       3.19955024       1.51228684
24
Lattice="11.373017368219681 -3.9182773130452395e-12 4.111001681169657e-14 5.68650868411324 9.849321958557926 -5.2881688910545196e-14 5.686508684110943 3.2831073195180527 6.867872796119163" Properties=species:S:1:pos:R:3 unique_starting_index=24 config_type=initial n_minim_iter=14 stress="-1.0971636213571784e-05 5.098035718966687e-14 -3.030691909315907e-14 5.098035718966687e-14 -1.0971636183185204e-05 -1.242987326741199e-14 -3.030691909315907e-14 -1.242987326741199e-14 -9.285946479321214e-05" pbc="T T T"
Si      12.80035099       5.33057968       6.55915793
Si      11.72944069       8.42013930       6.55915793
Si       9.58925872       5.94792396       6.55915793
Si      12.58840044       3.55925716       5.65176513
Si      13.36942627       9.12224600       5.65176513
Si       8.16122370       7.01713979       5.65176513
Si      14.22887500       3.97711767       0.73319969
Si      12.18731116      10.33400839       0.73319969
Si       7.70286423       5.38751688       0.73319969
Si      12.50546384       8.51296760      -0.03627272
Si       9.12085548       6.57356557      -0.03627272
Si      12.49273109       4.61210976      -0.03627272
Si      13.44794068      11.11122655       5.43405789
Si       6.39945880       6.09064499       5.43405789
Si      14.27165092       2.49677141       5.43405789
Si      15.32191694       3.65383753       6.68056338
Si      11.92075901      11.44225054       6.68056338
Si       6.87637445       4.60255487       6.68056338
Si      12.50330740      12.89083325       5.43071430
Si       5.33059084       4.38276522       5.43071430
Si      16.28515217       2.42504448       5.43071430
Si       6.33492625       2.32612703       1.51210721
Si       6.19106801       4.32314355       1.51210721
Si       4.53353009       3.20005040       1.51210721
24
Lattice="11.373643224098542 -3.917185521067528e-12 4.111700067145748e-14 5.686821612052672 9.849863965648131 -5.28942582421733e-14 5.686821612050374 3.28328798854812 6.866960503779111" Properties=species:S:1:pos:R:3 unique_starting_index=24 config_type=initial n_minim_iter=15 stress="3.8185421045607763e-05 6.322244044369172e-14 -1.7350589900482743e-14 6.322244044369172e-14 3.818542107576413e-05 -3.0243064166549574e-14 -1.7350589900482743e-14 -3.0243064166549574e-14 -0.00011751166724657663" pbc="T T T"
Si      12.80123532       5.33122692       6.55818201
Si      11.72968971       8.42058153       6.55818201
Si       9.59000294       5.94791850       6.55818201
Si      12.58918499       3.55991213       5.65059511
Si      13.36971848       9.12259795       5.65059511
Si       8.16202450       7.01721688       5.65059511
Si      14.22949710       3.97766576       0.73293370
Si      12.18777717      10.33427309       0.73293370
Si       7.70365371       5.38778810       0.73293370
Si      12.50610269       8.51358734      -0.03698510
Si       9.12125106       6.57380896      -0.03698510
Si      12.49357423       4.61233065      -0.03698510
Si      13.44943223      11.11170375       5.43423929
Si       6.39955148       6.09169810       5.43423929
Si      14.27194427       2.49632510       5.43423929
Si      15.32256952       3.65397215       6.67994617
Si      11.92156785      11.44274838       6.67994617
Si       6.87679060       4.60300642       6.67994617
Si      12.50392592      12.89147047       5.43047486
Si       5.33098144       4.38298226       5.43047486
Si      16.28602061       2.42527423       5.43047486
Si       6.33414431       2.32570381       1.51166068
Si       6.19245136       4.32267798       1.51166068
Si       4.53386747       3.20148120       1.51166068
24
Lattice="11.373471258192668 -3.918432624307819e-12 4.1114967523296886e-14 5.686735629099734 9.84971503880506 -5.289291843390339e-14 5.686735629097436 3.283238346267095 6.866275530659695" Properties=species:S:1:pos:R:3 unique_starting_index=24 config_type=initial n_minim_iter=16 stress="6.485071542883085e-05 6.372977066732099e-14 -2.0663606667156642e-14 6.372977066732099e-14 6.485071547384496e-05 -3.267633791030515e-14 -2.0663606667156642e-14 -3.267633791030515e-14 -1.1099529636804261e-05" pbc="T T T"
Si      12.80175813       5.33119690       6.55768929
Si      11.72911037       8.42104931       6.55768929
Si       9.58954357       5.94718289       6.55768929
Si      12.58926984       3.56027408       5.64939470
Si      13.36901867       9.12249046       5.64939470
Si       8.16212357       7.01666456       5.64939470
Si      14.22931702       3.97866996       0.73217900
Si      12.18665361      10.33361504       0.73217900
Si       7.70444144       5.38714410       0.73217900
Si      12.50612897       8.51327042      -0.03819057
Si       9.12116844       6.57399018      -0.03819057
Si      12.49311466       4.61216849      -0.03819057
Si      13.44986066      11.11166593       5.43524458
Si       6.39902608       6.09208805       5.43524458
Si      14.27152533       2.49567512       5.43524458
Si      15.32229083       3.65425248       6.67974755
Si      11.92112049      11.44236686       6.67974755
Si       6.87700076       4.60280975       6.67974755
Si      12.50372452      12.89119213       5.43030974
Si       5.33097925       4.38294701       5.43030974
Si      16.28570830       2.42528995       5.43030974
Si       6.33331530       2.32510594       1.51148433
Si       6.19321167       4.32225897       1.51148433
Si       4.53367822       3.20234915       1.51148433
24
Lattice="11.371703362813125 -3.918053596727168e-12 4.1105691749079565e-14 5.685851681409961 9.848183996495145 -5.289705221801112e-14 5.685851681407664 3.282727998830457 6.86478968624195" Properties=species:S:1:pos:R:3 unique_starting_index=24 config_type=initial n_minim_iter=17 stress="7.293506810838187e-05 4.7111602341236454e-14 -3.279379499638914e-14 4.7111602341236454e-14 7.293506814771721e-05 -4.2290754468995496e-14 -3.279379499638914e-14 -4.2290754468995496e-14 0.00045484987946476274" pbc="T T T"
Si      12.80158036       5.33041973       6.55703262
Si      11.72633651       8.42128394       6.55703262
Si       9.58719151       5.94466335       6.55703262
Si      12.58785275       3.56094810       5.64635470
Si      13.36560770       9.12092621       5.64635470
Si       8.16164793       7.01449270       5.64635470
Si      14.22740284       3.98100960       0.73030975
Si      12.18204873      10.33078749       0.73030975
Si       7.70565682       5.38456993       0.73030975
Si      12.50482750       8.51157231      -0.04164963
Si       9.11975400       6.57371213      -0.04164963
Si      12.49052689       4.61108258      -0.04164963
Si      13.44983094      11.11069842       5.43805018
Si       6.39634304       6.09254606       5.43805018
Si      14.26893441       2.49312254       5.43805018
Si      15.32006217       3.65463192       6.67988238
Si      11.91837042      11.44024706       6.67988238
Si       6.87667580       4.60148803       6.67988238
Si      12.50181779      12.88837702       5.43018987
Si       5.33083478       4.38270329       5.43018987
Si      16.28245581       2.42528670       5.43018987
Si       6.33037315       2.32329952       1.51077318
Si       6.19447925       4.32061421       1.51077318
Si       4.53270094       3.20426929       1.51077318
24
Lattice="11.3715798119562 -3.914603472452455e-12 4.1104215101867825e-14 5.6857899059814985 9.848076998314387 -5.290460068032856e-14 5.685789905979202 3.2826923327702064 6.8644901195175" Properties=species:S:1:pos:R:3 unique_starting_index=24 config_type=initial n_minim_iter=18 stress="0.0003441279544969759 7.109806442296773e-14 -4.025758311841832e-14 7.109806442296773e-14 0.00034412795453933625 -2.1774538633403913e-14 -4.025758311841832e-14 -2.1774538633403913e-14 -9.142446440487031e-05" pbc="T T T"
Si      12.80183727       5.32996139       6.55804774
Si      11.72635789       8.42173560       6.55804774
Si       9.58654257       5.94445603       6.55804774
Si      12.58870110       3.56275620       5.64276928
Si      13.36337056       9.12075686       5.64276928
Si       8.16266607       7.01263996       5.64276928
Si      14.22848603       3.98425734       0.72637339
Si      12.17844740      10.33010169       0.72637339
Si       7.70780431       5.38179399       0.72637339
Si      12.50622549       8.51226631      -0.04652921
Si       9.11820688       6.57457583      -0.04652921
Si      12.49030537       4.60931088      -0.04652921
Si      13.45310779      11.11132678       5.44467364
Si       6.39391333       6.09506972       5.44467364
Si      14.26771661       2.48975652       5.44467364
Si      15.31992090       3.65555891       6.68128452
Si      11.91739116      11.43966123       6.68128452
Si       6.87742567       4.60093288       6.68128452
Si      12.50160075      12.88767014       5.43183070
Si       5.33130838       4.38286877       5.43183070
Si      16.28182861       2.42561411       5.43183070
Si       6.32790784       2.32149574       1.51109870
Si       6.19715047       4.31938107       1.51109870
Si       4.53230971       3.20719921       1.51109870
24
Lattice="11.372581678380143 -3.91716211984614e-12 4.11167053301278e-14 5.6862908391934734 9.848944640088721 -5.291137699031088e-14 5.686290839191174 3.282981546694983 6.860296331716451" Properties=species:S:1:pos:R:3 unique_starting_index=24 config_type=initial n_minim_iter=19 stress="-0.00045421561422870186 6.470987576951846e-14 -3.642576368199098e-14 6.470987576951846e-14 -0.00045421561419673514 -3.1350849015979746e-14 -3.642576368199098e-14 -3.1350849015979746e-14 -0.0003514812285362895" pbc="T T T"
Si      12.80105509       5.33091243       6.55371103
Si      11.72792909       8.42058269       6.55371103
Si       9.58875915       5.94639319       6.55371103
Si      12.59142417       3.56442435       5.63643608
Si      13.36256811       9.12228103       5.63643608
Si       8.16375106       7.01118293       5.63643608
Si      14.23233689       3.98591385       0.72344871
Si      12.17709113      10.33260837       0.72344871
Si       7.70831532       5.37936608       0.72344871
Si      12.50996987       8.51508649      -0.04789673
Si       9.11589607       6.57640846      -0.04789673
Si      12.49187739       4.60639335      -0.04789673
Si      13.45730167      11.11333086       5.44561688
Si       6.39208454       6.09769968       5.44561688
Si      14.26835712       2.48685776       5.44561688
Si      15.32065932       3.65763788       6.67768579
Si      11.91722524      11.43926124       6.67768579
Si       6.87985877       4.60098919       6.67768579
Si      12.50239457      12.88764165       5.42934199
Si       5.33293988       4.38357049       5.42934199
Si      16.28240888       2.42667617       5.42934199
Si       6.32836215       2.32182309       1.51168576
Si       6.19764169       4.31961085       1.51168576
Si       4.53286697       3.20750973       1.51168576
24
Lattice="11.387774827372773 -3.935213614834599e-12 4.1191700769782565e-14 5.693887413689804 9.862102293079813 -5.297030850808323e-14 5.693887413687492 3.287367431025341 6.8565340837957365" Properties=species:S:1:pos:R:3 unique_starting_index=24 config_type=initial n_minim_iter=20 stress="0.004118948630370148 5.877190228878413e-14 -3.615335036730405e-14 5.877190228878413e-14 0.004118948630425909 -1.1783042926662933e-14 -3.615335036730405e-14 -1.1783042926662933e-14 0.004098851708604374" pbc="T T T"
Si      12.81556840       5.34106657       6.54476232
Si      11.74226499       8.42807452       6.54476232
Si       9.60548939       5.95506252       6.54476232
Si      12.61431935       3.57354722       5.62734071
Si      13.37360617       9.13754740       5.62734071
Si       8.17539726       7.01310898       5.62734071
Si      14.25835395       3.99338079       0.71546093
Si      12.18800233      10.35140634       0.71546093
Si       7.71696650       5.37941647       0.71546093
Si      12.53766548       8.53454430      -0.05053837
Si       9.11558361       6.59066466      -0.05053837
Si      12.51007369       4.59899465      -0.05053837
Si      13.48152516      11.13090971       5.46352783
Si       6.39513536       6.10988841       5.46352783
Si      14.28666226       2.48340548       5.46352783
Si      15.34316474       3.67147464       6.67560378
Si      11.92437585      11.45183313       6.67560378
Si       6.89578219       4.60089585       6.67560378
Si      12.51633402      12.89926563       5.42918282
Si       5.34628979       4.38983041       5.42918282
Si      16.30069897       2.43510757       5.42918282
Si       6.33511194       2.32559873       1.50717879
Si       6.20619015       4.32356851       1.50717879
Si       4.54035845       3.21293407       1.50717879
24
Lattice="11.404108219915338 -3.938235942768044e-12 4.1262246263043875e-14 5.7020541099610895 9.876247425951652 -5.303891709212277e-14 5.702054109958773 3.292082475315954 6.853005738993235" Properties=species:S:1:pos:R:3 unique_starting_index=24 config_type=initial n_minim_iter=21 stress="-0.00036020881558546434 6.937083084295966e-14 -5.1831135990175396e-14 6.937083084295966e-14 -0.00036020881554088124 -1.513827127978979e-14 -5.1831135990175396e-14 -1.513827127978979e-14 -0.00031045045348165954" pbc="T T T"
Si      12.83397065       5.34878818       6.53520172
Si      11.75904354       8.44015053       6.53520172
Si       9.61930877       5.96355516       6.53520172
Si      12.63655418       3.57841809       5.62261655
Si      13.39093724       9.15436789       5.62261655
Si       8.18483153       7.01970789       5.62261655
Si      14.28081135       3.99326898       0.71345022
Si      12.20953724      10.37091093       0.71345022
Si       7.72197436       5.38831396       0.71345022
Si      12.56470542       8.55305853      -0.04616648
Si       9.11869662       6.60482482      -0.04616648
Si      12.52892091       4.59461051      -0.04616648
Si      13.50189525      11.14792659       5.47161308
Si       6.40288005       6.11902099       5.47161308
Si      14.30754765       2.48554629       5.47161308
Si      15.36514714       3.68611491       6.67010522
Si      11.93337257      11.46355030       6.67010522
Si       6.91380324       4.60282865       6.67010522
Si      12.53137771      12.91229625       5.42844483
Si       5.36014987       4.39634332       5.42844483
Si      16.32079537       2.44385430       5.42844483
Si       6.34726942       2.33307273       1.50083159
Si       6.20997212       4.33036020       1.50083159
Si       4.54891908       3.21281352       1.50083159
