22
Lattice="7.4679445740448225 -1.917533354267541 -1.7610378269202749 -4.684877729926414 10.532227096689706 -0.9261393313558236 -5.175242286753159 -2.932929292666441 11.06713881867017" Properties=species:S:1:pos:R:3 unique_starting_index=18 config_type=initial n_minim_iter=1 energy=-3578.4274360757377 free_energy=-3578.4274360757377 pbc="T T T"
Si      -0.42861415       8.16742154      -0.03586618
Si      -0.35029335       0.47736356       5.90385184
Si      -4.89450748      -1.50527208       9.28128185
Si       0.86766241      -2.06429471       9.06080086
Si      -7.00877562       2.16731729       9.74674499
Si       4.79041319       1.07714720       0.00657101
Si       3.45540960      -0.49874316      -0.18971354
Si      -2.06786139       1.99273501       8.14201415
Si      -1.65095336      -2.46567497       9.13225898
Si      -4.07441708       2.47229596       6.50929667
Si       1.89648774       0.20553951       3.48056621
Si      -3.76460036       4.80347654       5.66805606
Si      -3.48441316      -0.94633101       6.80099638
Si      -2.35727303       6.89733413      -0.01530962
Si       1.50638876       1.80482080       4.60363965
Si       0.83687180       6.31499645      -1.14092475
Si      -0.70223076      -0.57318839       3.25706252
Si       3.34272258      -4.47981976       5.98352801
Si       0.42353647       1.36526745       2.86135345
Si      -4.36058137       4.18108356       7.50912661
Si      -3.17940289       4.40622345       3.78748258
Si      -2.00652352      -0.48239347       8.13436800
22
Lattice="7.432958153956536 -1.9249252601923739 -1.723904452707937 -4.677007868028952 10.602955225914288 -0.999116210405586 -5.118789530223616 -3.010253719179189 11.042241499084277" Properties=species:S:1:pos:R:3 unique_starting_index=18 config_type=initial n_minim_iter=2 stress="-0.002083855576720268 0.005953518480159657 0.00200410768831337 0.005953518480159657 -0.015332751589073866 -0.017580487186298763 0.00200410768831337 -0.017580487186298763 -0.008791601527886958" pbc="T T T"
Si      -0.43363428       8.21555150      -0.08498592
Si      -0.33292558       0.44642328       5.88586095
Si      -4.84387198      -1.56654219       9.24926565
Si       0.89219111      -2.12957333       9.05347366
Si      -6.95288162       2.12840609       9.68997707
Si       4.76981191       1.07905124       0.01418553
Si       3.44118688      -0.50532674      -0.17379209
Si      -2.03718406       1.95817957       8.10458874
Si      -1.61665365      -2.52905238       9.11624699
Si      -4.03863848       2.45088523       6.46887183
Si       1.89858994       0.18175955       3.47407785
Si      -3.73593913       4.80067580       5.61475860
Si      -3.44855832      -0.98680123       6.77874910
Si      -2.35334583       6.93933311      -0.06255925
Si       1.51338193       1.78777485       4.58924572
Si       0.82450597       6.35826226      -1.17260367
Si      -0.68855320      -0.59413456       3.25081149
Si       3.34838974      -4.54333290       6.00913667
Si       0.42762339       1.35780383       2.84728189
Si      -4.32706444       4.16540440       7.44977998
Si      -3.15966594       4.41348850       3.74481541
Si      -1.97533764      -0.53258959       8.11182500
22
Lattice="7.424970004563795 -1.9461001175636565 -1.7208727814363394 -4.686387534952829 10.66047420788719 -0.994538651584826 -5.0999413061421786 -3.008452890639728 11.04241608316595" Properties=species:S:1:pos:R:3 unique_starting_index=18 config_type=initial n_minim_iter=3 stress="-0.0029901100855957187 0.0005640999842516646 -0.004393176362487767 0.0005640999842516646 0.01732694529409137 -0.005729355326636882 -0.004393176362487767 -0.005729355326636882 0.004182868388377535" pbc="T T T"
Si      -0.44405190       8.25641098      -0.07870294
Si      -0.32928235       0.45456163       5.88968267
Si      -4.82822597      -1.56024802       9.24848890
Si       0.90098243      -2.13304765       9.05795082
Si      -6.93979854       2.15629300       9.69222869
Si       4.76280772       1.07768816       0.01880275
Si       3.43787568      -0.51292355      -0.17177484
Si      -2.03109525       1.97733878       8.10956944
Si      -1.60528069      -2.53028474       9.11785351
Si      -4.03054303       2.47263686       6.47273990
Si       1.89872832       0.18084339       3.47601364
Si      -3.73356110       4.83378524       5.62021590
Si      -3.43736053      -0.97979086       6.77860542
Si      -2.35985897       6.97635752      -0.05872128
Si       1.51321552       1.79880859       4.59654484
Si       0.81392458       6.38769970      -1.16738249
Si      -0.68385110      -0.59265422       3.25201602
Si       3.35476241      -4.56570729       6.01301418
Si       0.42652865       1.36757187       2.85019482
Si      -4.32349133       4.19888505       7.45211910
Si      -3.15909773       4.44316389       3.74814353
Si      -1.96694389      -0.52660601       8.11495077
22
Lattice="7.415651593208527 -1.9599787372367024 -1.6997449048235906 -4.701527239438209 10.661989040382068 -0.9910649623915614 -5.058422836074085 -2.9824419372389026 11.00688338387512" Properties=species:S:1:pos:R:3 unique_starting_index=18 config_type=initial n_minim_iter=4 stress="-0.0031760819202672616 -0.0019983660151204883 0.0019021901721268822 -0.0019983660151204883 0.008106177556737253 0.0011936361486987652 0.0019021901721268822 0.0011936361486987652 -0.004525080388204975" pbc="T T T"
Si      -0.45630600       8.25364482      -0.06808806
Si      -0.31415137       0.46460736       5.88109625
Si      -4.79403450      -1.53854333       9.21690093
Si       0.92978872      -2.11927327       9.04436649
Si      -6.90860623       2.18008482       9.66102372
Si       4.75730599       1.06931391       0.03434115
Si       3.43571118      -0.51814074      -0.16427250
Si      -2.00879657       1.99131809       8.09475252
Si      -1.57570628      -2.51169794       9.09668313
Si      -4.00910149       2.48728274       6.45882334
Si       1.90613648       0.18066291       3.47449087
Si      -3.72167436       4.84541871       5.61116058
Si      -3.41243473      -0.96188275       6.75614418
Si      -2.36864041       6.97671393      -0.05541401
Si       1.52271908       1.80038660       4.59828141
Si       0.79959034       6.38279115      -1.15388287
Si      -0.67167325      -0.58505432       3.24495565
Si       3.37650909      -4.56157786       6.00862093
Si       0.43038317       1.37318186       2.84883682
Si      -4.30668503       4.21444624       7.42950391
Si      -3.15239360       4.45274243       3.73875068
Si      -1.94289632      -0.51344883       8.09698492
22
Lattice="7.412416160053592 -1.965107244256373 -1.6940599789886688 -4.7088349616013545 10.669473123584044 -1.0051490539358634 -5.041826625849957 -2.986503574113871 11.027908678944698" Properties=species:S:1:pos:R:3 unique_starting_index=18 config_type=initial n_minim_iter=5 stress="0.015489155430171282 -0.006183659039311601 0.007305126701277625 -0.006183659039311601 0.02384494126043617 -0.011876920464350805 0.007305126701277625 -0.011876920464350805 0.013119544687998395" pbc="T T T"
Si      -0.46117756       8.25712361      -0.07422654
Si      -0.30989753       0.46301597       5.89454664
Si      -4.78050628      -1.54138395       9.23163222
Si       0.94203129      -2.12476859       9.06783953
Si      -6.89681020       2.17829522       9.67396224
Si       4.75634289       1.06582178       0.03961009
Si       3.43634475      -0.52053251      -0.16287036
Si      -1.99992265       1.98754752       8.11003171
Si      -1.56650916      -2.51421673       9.11746497
Si      -4.00052921       2.48508975       6.47060034
Si       1.91132837       0.17637616       3.48497647
Si      -3.71772046       4.84573214       5.62110029
Si      -3.40167970      -0.95981539       6.76581692
Si      -2.37279186       6.98005764      -0.06269956
Si       1.52496229       1.79084554       4.60862414
Si       0.79329502       6.38655453      -1.15935853
Si      -0.66521437      -0.58440241       3.25294945
Si       3.38678993      -4.57324219       6.03093437
Si       0.42986175       1.37589301       2.85455359
Si      -4.30121270       4.21387083       7.43374491
Si      -3.15020848       4.45534391       3.73824888
Si      -1.93579866      -0.52100889       8.11437710
22
Lattice="7.3672073468518136 -1.9617945391989973 -1.7044144102395034 -4.673790395443085 10.65488030395358 -0.9861741486921874 -5.02336570851747 -2.9715342858237137 11.02762719365966" Properties=species:S:1:pos:R:3 unique_starting_index=18 config_type=initial n_minim_iter=6 stress="-0.011481900184768554 -0.0034104892119844925 -0.0037667919876129617 -0.0034104892119844925 0.008128192060927224 -0.014138239046677067 -0.0037667919876129617 -0.014138239046677067 -0.012289774363739115" pbc="T T T"
Si      -0.45294921       8.24896877      -0.06373039
Si      -0.31705171       0.47246447       5.89550948
Si      -4.76080327      -1.53052727       9.23060932
Si       0.92674037      -2.10820460       9.06342742
Si      -6.86327028       2.18306448       9.68286500
Si       4.72933707       1.06662956       0.03642586
Si       3.41733415      -0.51846985      -0.17022240
Si      -1.99452216       1.99386452       8.11397489
Si      -1.57250676      -2.49629165       9.11451112
Si      -3.98037633       2.48473107       6.47957013
Si       1.89812659       0.18215844       3.48314391
Si      -3.69790100       4.84552288       5.63400766
Si      -3.38705938      -0.94754532       6.76465756
Si      -2.35459882       6.97067093      -0.05146139
Si       1.50953417       1.78766427       4.60778410
Si       0.79246881       6.38114555      -1.15164537
Si      -0.66180482      -0.57653175       3.25386394
Si       3.35963713      -4.56290945       6.02268037
Si       0.42351633       1.38262500       2.85593481
Si      -4.28274219       4.21738042       7.43686068
Si      -3.13293704       4.45612002       3.74465956
Si      -1.93700255      -0.51623766       8.11575120
22
Lattice="7.239745414340614 -1.9055097181950238 -1.7183879920692762 -4.529182321407389 10.526227596765425 -0.9159136651076671 -4.9264754987709605 -2.8794934214593746 11.14526230216745" Properties=species:S:1:pos:R:3 unique_starting_index=18 config_type=initial n_minim_iter=7 stress="0.0022007034707217064 0.009453594790506106 0.014997566648962719 0.009453594790506106 0.015096417282216074 -0.0023464035523787443 0.014997566648962719 -0.0023464035523787443 0.029718429590910634" pbc="T T T"
Si      -0.37468053       8.18519416       0.01203464
Si      -0.29816970       0.53696237       5.99466714
Si      -4.66213222      -1.46835228       9.32124868
Si       0.94275943      -1.98407783       9.19043419
Si      -6.70690162       2.19672444       9.82451668
Si       4.68096035       1.09383411       0.07121560
Si       3.37647009      -0.49113826      -0.17320453
Si      -1.91217734       2.03702025       8.25271084
Si      -1.55406070      -2.37475109       9.21842369
Si      -3.86941684       2.47876258       6.60174486
Si       1.89560515       0.22773289       3.54101124
Si      -3.57442223       4.83296134       5.74799732
Si      -3.31490302      -0.89048942       6.83853319
Si      -2.26589696       6.89294338       0.00512334
Si       1.50323914       1.79604779       4.69888839
Si       0.82616516       6.33874214      -1.10153639
Si      -0.62753811      -0.52790717       3.30325951
Si       3.31706766      -4.44878195       6.09105640
Si       0.43783830       1.42207325       2.92018402
Si      -4.16438873       4.22253101       7.56077354
Si      -3.04232623       4.44675497       3.83305600
Si      -1.90079713      -0.47505172       8.23292324
22
Lattice="7.183995127291946 -1.8954352770872396 -1.7635314128695223 -4.477467200428354 10.430526874059712 -0.8247081810084331 -4.914265421817867 -2.770822324092764 11.215356542815442" Properties=species:S:1:pos:R:3 unique_starting_index=18 config_type=initial n_minim_iter=8 stress="-0.005731355723959697 0.004364041416280793 0.00992537173198346 0.004364041416280793 -0.0021278687614118053 0.014122779764781991 0.00992537173198346 0.014122779764781991 0.038971552896276275" pbc="T T T"
Si      -0.35204207       8.12503377       0.07817321
Si      -0.32261284       0.59537698       6.05057851
Si      -4.64467505      -1.38795760       9.37465116
Si       0.92068546      -1.87919563       9.24621039
Si      -6.67166361       2.24151164       9.93260896
Si       4.65629801       1.08957455       0.07358154
Si       3.36301281      -0.48468562      -0.19902701
Si      -1.90812024       2.08122297       8.33924677
Si      -1.58907137      -2.25545415       9.26875073
Si      -3.84626801       2.49240489       6.69520855
Si       1.88941319       0.25088309       3.56209089
Si      -3.54130479       4.83676017       5.82797212
Si      -3.30274733      -0.82373553       6.88575955
Si      -2.23705011       6.83093495       0.06626846
Si       1.46564948       1.78960007       4.74490506
Si       0.83156592       6.29364064      -1.05736291
Si      -0.61419910      -0.47891886       3.33396372
Si       3.28849160      -4.36445971       6.09555547
Si       0.42444270       1.45788278       2.95742983
Si      -4.15127283       4.23941150       7.64705520
Si      -3.02604679       4.45419451       3.90968309
Si      -1.92723197      -0.43555512       8.30162028
22
Lattice="7.1905349471694775 -1.870513816159084 -1.773791127931001 -4.43616290074392 10.41617849714087 -0.7709730735812105 -4.947506950905312 -2.748927219871987 11.17575105429137" Properties=species:S:1:pos:R:3 unique_starting_index=18 config_type=initial n_minim_iter=9 stress="-0.009690568333005427 0.013382246430981104 0.010536934404329765 0.013382246430981104 -0.013251182593035895 0.020835944564393874 0.010536934404329765 0.020835944564393874 -0.002522206981225821" pbc="T T T"
Si      -0.30961713       8.13443303       0.11333682
Si      -0.33479840       0.62820973       6.04012322
Si      -4.66733648      -1.37426242       9.33575062
Si       0.90876865      -1.83007201       9.21479813
Si      -6.68355760       2.24865902       9.92180282
Si       4.67603426       1.11148902       0.07550223
Si       3.37566622      -0.46799874      -0.21396010
Si      -1.90844234       2.10643677       8.32925973
Si      -1.62589062      -2.21253109       9.23659374
Si      -3.84783243       2.49590991       6.69873523
Si       1.89845945       0.27305824       3.54912242
Si      -3.52600006       4.84845382       5.83043300
Si      -3.31829653      -0.80600529       6.86379459
Si      -2.20817296       6.82422616       0.09823945
Si       1.45961256       1.79942845       4.73755843
Si       0.86444006       6.30677040      -1.02565811
Si      -0.61146187      -0.45707700       3.32846810
Si       3.27574524      -4.32962157       6.05962618
Si       0.42813508       1.48487962       2.95952452
Si      -4.15090660       4.25249214       7.64000529
Si      -3.01822282       4.46951230       3.92441032
Si      -1.95558289      -0.42592227       8.28127806
22
Lattice="7.244127219487706 -1.8752151417958935 -1.8434668106311505 -4.439637199205958 10.492597881081394 -0.7348712390743571 -5.065927588145934 -2.7733922232369808 11.287746658594498" Properties=species:S:1:pos:R:3 unique_starting_index=18 config_type=initial n_minim_iter=10 stress="-0.0014901952121833574 0.011374209880707711 -0.0044632432958550215 0.011374209880707711 -0.006511740991415411 0.01784592068457595 -0.0044632432958550215 0.01784592068457595 0.024187047388015928" pbc="T T T"
Si      -0.28916184       8.20370228       0.11771408
Si      -0.39570204       0.65113529       6.09063342
Si      -4.76596863      -1.39296564       9.41559426
Si       0.85091723      -1.82561446       9.27779492
Si      -6.79406392       2.25141565      10.04403984
Si       4.71622564       1.12348139       0.04066988
Si       3.41526091      -0.46489658      -0.25579390
Si      -1.97628567       2.11576164       8.40600427
Si      -1.73405543      -2.20973869       9.31649887
Si      -3.92276852       2.50389412       6.78944325
Si       1.89050011       0.28615070       3.55046548
Si      -3.57877586       4.88015831       5.89309069
Si      -3.39687169      -0.82141897       6.93737292
Si      -2.20795999       6.86853483       0.11848380
Si       1.41743617       1.78312105       4.76331842
Si       0.88972640       6.37288039      -1.03296537
Si      -0.62180951      -0.43773186       3.36669587
Si       3.25946738      -4.35142144       6.06531458
Si       0.42207730       1.50899927       2.99204798
Si      -4.23769308       4.26426335       7.69617691
Si      -3.06496601       4.51913598       3.97996565
Si      -2.05777264      -0.44697844       8.35636029
22
Lattice="7.285756590706776 -1.9332052312671064 -1.8384896332359018 -4.515930125272753 10.61361564659846 -0.7299900716625458 -5.055774442389108 -2.7581203480221173 11.30865304467298" Properties=species:S:1:pos:R:3 unique_starting_index=18 config_type=initial n_minim_iter=11 stress="0.015519889178582123 -0.008693920449583802 0.0057919564988628235 -0.008693920449583802 0.005124626211779814 0.02858202075300842 0.0057919564988628235 0.02858202075300842 0.016023139403013264" pbc="T T T"
Si      -0.32286896       8.28650155       0.12562125
Si      -0.40295055       0.68288625       6.11603703
Si      -4.76210859      -1.37595029       9.41227870
Si       0.89027984      -1.82176546       9.31507718
Si      -6.81955656       2.31247683      10.06732499
Si       4.74476990       1.10540006       0.05115222
Si       3.45193006      -0.48651408      -0.26440576
Si      -1.97840818       2.14833283       8.43535839
Si      -1.73714277      -2.19455766       9.34827386
Si      -3.95339083       2.54183929       6.81112572
Si       1.91791026       0.29204283       3.56413058
Si      -3.60831830       4.94683489       5.90565546
Si      -3.40806852      -0.81506672       6.95080912
Si      -2.25029198       6.93756700       0.12234522
Si       1.40537563       1.76323314       4.78537088
Si       0.86146142       6.44161066      -1.02215277
Si      -0.59734887      -0.41200963       3.38659516
Si       3.32258194      -4.39173200       6.07592529
Si       0.43290598       1.53574965       3.01938095
Si      -4.27489949       4.32254886       7.69231988
Si      -3.10167513       4.59937914       3.99604968
Si      -2.07249708      -0.44051954       8.38488973
22
Lattice="7.290232029487154 -1.943151215713502 -1.8528105533074548 -4.516704601932333 10.683874107702835 -0.7459179568572785 -5.054889359666732 -2.783293697680786 11.42640333061063" Properties=species:S:1:pos:R:3 unique_starting_index=18 config_type=initial n_minim_iter=12 stress="0.02898573675238735 -0.0019725493257025544 0.012870078006770298 -0.0019725493257025544 -0.0047779924813586274 0.0187465024015318 0.012870078006770298 0.0187465024015318 0.033407653292419424" pbc="T T T"
Si      -0.31003691       8.34596213       0.11669395
Si      -0.41401448       0.70402035       6.18706519
Si      -4.75840026      -1.40153440       9.48216538
Si       0.90595779      -1.82144511       9.42844000
Si      -6.81870376       2.31176939      10.17104981
Si       4.76337958       1.10913455       0.05203432
Si       3.47708444      -0.48641261      -0.28621913
Si      -1.97144875       2.14757902       8.52677311
Si      -1.76021661      -2.20026310       9.46639117
Si      -3.96974082       2.54222894       6.88432867
Si       1.93832141       0.29695558       3.59543196
Si      -3.60692379       4.97005714       5.95268813
Si      -3.42466376      -0.83545492       7.01363926
Si      -2.24574416       6.97384454       0.11445299
Si       1.38674194       1.74261975       4.84613566
Si       0.86529336       6.50446391      -1.03104645
Si      -0.57203113      -0.38891874       3.43650189
Si       3.33461755      -4.42108800       6.13661522
Si       0.45438030       1.55592575       3.07411814
Si      -4.28687226       4.32016180       7.73937461
Si      -3.10655874       4.64702974       4.03560609
Si      -2.09062658      -0.45416981       8.48672172
22
Lattice="7.304378429600438 -2.037921975348966 -1.8514792721475564 -4.63094268291362 10.874105059553903 -0.8323690146229902 -5.00993581526449 -2.83976885273005 11.553899291066461" Properties=species:S:1:pos:R:3 unique_starting_index=18 config_type=initial n_minim_iter=13 stress="0.03338885907716645 -0.013740963545811311 -0.0006909519717464093 -0.013740963545811311 0.029988646859990885 0.013027937078373991 -0.0006909519717464093 0.013027937078373991 0.03002449728756321" pbc="T T T"
Si      -0.38184919       8.45936486       0.04501083
Si      -0.43982639       0.71410352       6.25453752
Si      -4.72926567      -1.44690522       9.53448993
Si       0.95487627      -1.88714994       9.56427898
Si      -6.82969096       2.33102451      10.25434417
Si       4.77760273       1.05711576       0.04190387
Si       3.52690956      -0.53343656      -0.31651642
Si      -1.97783515       2.11522777       8.60252065
Si      -1.77441740      -2.24533016       9.60922943
Si      -4.01037083       2.53677838       6.94159631
Si       1.95919488       0.25862175       3.60596229
Si      -3.66224017       5.01710068       5.95308138
Si      -3.42427301      -0.86890235       7.08993753
Si      -2.31110079       7.06542883       0.05364268
Si       1.31816917       1.65662855       4.89596914
Si       0.79476607       6.62148030      -1.07382626
Si      -0.51479155      -0.35478511       3.50098286
Si       3.39435892      -4.56855077       6.20303296
Si       0.48313672       1.57033075       3.14872590
Si      -4.34452256       4.33056553       7.73680787
Si      -3.16096525       4.75041181       4.04248972
Si      -2.13006588      -0.50109764       8.57669147
22
Lattice="7.329704021426814 -2.0179135299486717 -1.8104508751231143 -4.672492700674653 10.835996719098112 -0.997787036208368 -4.935427787322623 -2.9265249642379803 11.81423556407592" Properties=species:S:1:pos:R:3 unique_starting_index=18 config_type=initial n_minim_iter=14 stress="0.04007448133114942 -0.01892750190940176 -0.0063771383569978645 -0.01892750190940176 0.0388409408253662 -0.0029113760569949307 -0.0063771383569978645 -0.0029113760569949307 0.06120421493217647" pbc="T T T"
Si      -0.36560754       8.43020163      -0.06179795
Si      -0.41737859       0.71277305       6.40849727
Si      -4.67173760      -1.54762852       9.66647934
Si       1.07461283      -1.91854627       9.87088750
Si      -6.78136860       2.21593065      10.42516178
Si       4.84024534       1.02201877       0.05873829
Si       3.62019158      -0.52874514      -0.33124871
Si      -1.90449528       1.99607636       8.78770399
Si      -1.76459988      -2.26566434       9.89271139
Si      -4.00942543       2.39538772       7.04157102
Si       2.03364803       0.23558562       3.69076047
Si      -3.66759053       4.92178802       5.99331240
Si      -3.39872266      -0.94469600       7.26468515
Si      -2.31545505       7.00443421      -0.05117048
Si       1.32187539       1.53380451       5.07614649
Si       0.78849056       6.65609382      -1.13162489
Si      -0.41153730      -0.29732647       3.62407696
Si       3.46720800      -4.63180743       6.38213354
Si       0.55937557       1.55268714       3.25834518
Si      -4.34871876       4.20823833       7.78418233
Si      -3.15977261       4.74388113       4.05597630
Si      -2.14389506      -0.58677547       8.77073684
22
Lattice="7.2919101125969545 -1.9974096410967688 -1.7133915328026856 -4.654380204456188 10.865649144919537 -1.1253921196506607 -4.785307742730713 -3.0076464665215425 11.852290376856352" Properties=species:S:1:pos:R:3 unique_starting_index=18 config_type=initial n_minim_iter=15 stress="0.045233907940041465 -0.029213730051758098 0.003141976543629672 -0.029213730051758098 0.02658551690794319 -0.004300861450793302 0.003141976543629672 -0.004300861450793302 0.0564701688697209" pbc="T T T"
Si      -0.33094798       8.46343184      -0.12798548
Si      -0.34803714       0.72017351       6.45396813
Si      -4.55466057      -1.62077520       9.65524316
Si       1.21215301      -1.94136676      10.00706670
Si      -6.63559277       2.14420159      10.40442256
Si       4.85448986       1.00988495       0.10147640
Si       3.66416522      -0.51040214      -0.30075725
Si      -1.77687216       1.93016871       8.83126329
Si      -1.68050790      -2.29101763       9.97884530
Si      -3.93322205       2.31834734       7.02145360
Si       2.09776731       0.22856008       3.74054404
Si      -3.60066427       4.88365841       5.94068632
Si      -3.31864349      -1.00366397       7.29173982
Si      -2.28854376       7.00337905      -0.13264305
Si       1.35793641       1.47113129       5.16954479
Si       0.79252868       6.72310725      -1.14462131
Si      -0.31623258      -0.25676565       3.67099092
Si       3.53084338      -4.70766289       6.46070504
Si       0.63260443       1.54896268       3.30865254
Si      -4.25554226       4.15050763       7.72216951
Si      -3.10301848       4.76261746       4.02215620
Si      -2.07072256      -0.63804724       8.81839095
22
Lattice="7.211930424064165 -1.9158436024700385 -1.6083104705931672 -4.50863858705142 10.908536148314482 -1.1993793649709876 -4.642713092319465 -3.109396137908163 11.808204889762093" Properties=species:S:1:pos:R:3 unique_starting_index=18 config_type=initial n_minim_iter=16 stress="0.06945121356485753 -0.009648854107878274 0.014930036598080284 -0.009648854107878274 0.03640236690903406 0.004664827043873433 0.014930036598080284 0.004664827043873433 0.06521705328942991" pbc="T T T"
Si      -0.20496437       8.54710676      -0.15290127
Si      -0.25774302       0.75792583       6.46514682
Si      -4.43559072      -1.71383300       9.58155547
Si       1.33467573      -1.91879857      10.08617099
Si      -6.43956501       2.05852805      10.33123510
Si       4.87651554       1.07183943       0.15625689
Si       3.68222436      -0.47105560      -0.26425336
Si      -1.61399837       1.89401114       8.83879845
Si      -1.60581778      -2.30244385       9.98861313
Si      -3.81742863       2.25175182       6.97063584
Si       2.16864652       0.25468375       3.78303760
Si      -3.46931013       4.86504532       5.88549724
Si      -3.23258968      -1.08036370       7.28339722
Si      -2.18116454       7.02268936      -0.18266152
Si       1.40893744       1.45539636       5.24494790
Si       0.86846664       6.83841744      -1.11458067
Si      -0.21994117      -0.20093373       3.69491937
Si       3.54123001      -4.74221085       6.48417405
Si       0.71716765       1.57750983       3.34983929
Si      -4.09550890       4.10203549       7.63219669
Si      -2.98071975       4.79315052       3.97670957
Si      -1.98702739      -0.67731852       8.81037622
22
Lattice="7.092591261936503 -1.891190718053809 -1.5148178564557964 -4.413854203565319 10.967685997865798 -1.2775885084805603 -4.450332193683744 -3.1703676778576693 11.793216681899537" Properties=species:S:1:pos:R:3 unique_starting_index=18 config_type=initial n_minim_iter=17 stress="0.060382701330283804 -0.013034918696475542 0.01589129075768944 -0.013034918696475542 0.014798372308201855 0.011924998521297778 0.01589129075768944 0.011924998521297778 0.057686630002329736" pbc="T T T"
Si      -0.14671164       8.61515042      -0.18425630
Si      -0.16866774       0.79362970       6.48144825
Si      -4.27809283      -1.77429033       9.52791822
Si       1.45037335      -1.90973185      10.18377939
Si      -6.22051242       2.01937533      10.28235020
Si       4.84935486       1.08938261       0.20175132
Si       3.67233655      -0.45694232      -0.23677234
Si      -1.46204958       1.86205091       8.86435234
Si      -1.50693977      -2.30238027      10.01609402
Si      -3.68986669       2.21087301       6.94190939
Si       2.21278746       0.25666078       3.82879888
Si      -3.35436352       4.87132429       5.83815613
Si      -3.11833627      -1.12737464       7.29372740
Si      -2.11290815       7.04845843      -0.23466367
Si       1.43160092       1.42399204       5.31036834
Si       0.88772216       6.93226111      -1.09038554
Si      -0.12626985      -0.13892252       3.72113623
Si       3.55255753      -4.79863930       6.52945312
Si       0.77416988       1.58942050       3.40588725
Si      -3.94965734       4.07288888       7.56979391
Si      -2.87567956       4.83313155       3.92849283
Si      -1.88382804      -0.70475853       8.82113568
22
Lattice="6.983114255813021 -1.8624657534051106 -1.438783650379176 -4.310709957397917 11.043454393300395 -1.3457408674338893 -4.302304948179561 -3.2510917691155354 11.757128614079187" Properties=species:S:1:pos:R:3 unique_starting_index=18 config_type=initial n_minim_iter=18 stress="0.04573932442632199 -0.012063341649384746 0.02220066107360781 -0.012063341649384746 0.019888442348677753 0.013799960248914002 0.02220066107360781 0.013799960248914002 0.06191943739448866" pbc="T T T"
Si      -0.08801559       8.69642902      -0.21638719
Si      -0.09222189       0.81333674       6.47148351
Si      -4.15600992      -1.84462140       9.47166291
Si       1.52743640      -1.92186536      10.23378631
Si      -6.03864705       1.97312087      10.21838730
Si       4.81659783       1.11755256       0.23287236
Si       3.65082168      -0.43767944      -0.21421558
Si      -1.34170637       1.83194660       8.85966500
Si      -1.42816983      -2.33093892      10.01359613
Si      -3.57694622       2.17434750       6.90330166
Si       2.23647105       0.26051026       3.85646777
Si      -3.24914811       4.88432097       5.78210323
Si      -3.02732321      -1.18324269       7.28656790
Si      -2.04340570       7.09108567      -0.28028908
Si       1.45292113       1.40494840       5.34232567
Si       0.91501299       7.02782652      -1.07709992
Si      -0.06720287      -0.11491461       3.73079936
Si       3.54396546      -4.85556296       6.55356066
Si       0.81953057       1.61281118       3.43442561
Si      -3.82562974       4.04815163       7.50794114
Si      -2.77921484       4.86521957       3.87366254
Si      -1.79677506      -0.74107176       8.80825412
22
Lattice="6.928782006387897 -1.7956970304895188 -1.3828206160175138 -4.189419792602028 11.06978077489904 -1.3744893796993414 -4.262965066894837 -3.342497588866251 11.623319154254679" Properties=species:S:1:pos:R:3 unique_starting_index=18 config_type=initial n_minim_iter=19 stress="0.019489695796687734 0.009182403127633063 0.03834060510839181 0.009182403127633063 0.012569761506180176 0.01262385885355552 0.03834060510839181 0.01262385885355552 -0.006260689459194956" pbc="T T T"
Si       0.00314030       8.75239058      -0.24399325
Si      -0.04458101       0.81860699       6.40006778
Si      -4.13018185      -1.93013368       9.34642651
Si       1.54420644      -1.92760608      10.18545694
Si      -5.95223610       1.89810167      10.08330417
Si       4.82525273       1.16745804       0.22198385
Si       3.65246846      -0.40241571      -0.19612497
Si      -1.27074396       1.78957637       8.77722149
Si      -1.41313775      -2.36225802       9.90063985
Si      -3.51166205       2.11877065       6.81403208
Si       2.24874403       0.26567288       3.84153714
Si      -3.18487125       4.87566225       5.69130473
Si      -3.00678350      -1.25224290       7.22558223
Si      -1.95861696       7.11043309      -0.31112543
Si       1.48578736       1.41570785       5.28920546
Si       0.98902705       7.10768668      -1.04634287
Si      -0.04107717      -0.10140585       3.69335693
Si       3.50508647      -4.88255226       6.49688131
Si       0.85398446       1.63544462       3.42967938
Si      -3.75485207       4.00623710       7.40622441
Si      -2.70264481       4.86218271       3.78673397
Si      -1.75203820      -0.77184176       8.72000885
22
Lattice="6.88391239501947 -1.7311208207510982 -1.4653149617937857 -4.089438166411489 10.937234113528698 -1.3551379045801728 -4.381234486540018 -3.383696531995018 11.660759349664481" Properties=species:S:1:pos:R:3 unique_starting_index=18 config_type=initial n_minim_iter=20 stress="-0.013516303114879374 -0.011674739832574743 0.00507903949246822 -0.011674739832574743 -0.004216054996252271 0.002272941123467215 0.00507903949246822 0.002272941123467215 -0.014868442845401623" pbc="T T T"
Si       0.04661930       8.65482521      -0.28676369
Si      -0.09435213       0.77087619       6.37104310
Si      -4.22897384      -1.98819878       9.37853237
Si       1.39233851      -1.94652493      10.14684729
Si      -6.02144315       1.80614711      10.12883694
Si       4.78366491       1.16776283       0.13934399
Si       3.62787691      -0.36535884      -0.23939988
Si      -1.35037636       1.71262892       8.77523836
Si      -1.51961337      -2.40344269       9.88393664
Si      -3.54419195       2.05431022       6.83617585
Si       2.17732246       0.23418648       3.80220738
Si      -3.21947896       4.79107221       5.70674820
Si      -3.07900833      -1.29545766       7.28082488
Si      -1.90092530       7.03590378      -0.31711945
Si       1.42984927       1.41018557       5.24287001
Si       1.04020130       7.05377139      -1.05572192
Si      -0.10887568      -0.13275786       3.66265910
Si       3.36970614      -4.84077040       6.46306636
Si       0.80039431       1.61920773       3.39080794
Si      -3.77620978       3.93386524       7.44434606
Si      -2.70071701       4.76612187       3.77992126
Si      -1.81338726      -0.78574965       8.71718991
22
Lattice="6.895833892657535 -1.6785879605936411 -1.544081451839004 -4.030388646394017 10.838005749355242 -1.32057519341788 -4.518082931598735 -3.404381562658061 11.72048499243665" Properties=species:S:1:pos:R:3 unique_starting_index=18 config_type=initial n_minim_iter=21 stress="-0.008246060666149992 0.015768560870082687 -0.011355039914113777 0.015768560870082687 -0.014785468443568518 -0.012737962459562218 -0.011355039914113777 -0.012737962459562218 -0.0025358883762760277" pbc="T T T"
Si       0.09335715       8.57240953      -0.31702027
Si      -0.13614749       0.74654113       6.36512615
Si      -4.34974133      -2.02595236       9.42433479
Si       1.27460649      -1.94061085      10.13577314
Si      -6.12830705       1.74387796      10.20411566
Si       4.79066545       1.17910421       0.08386483
Si       3.63299693      -0.34080650      -0.28610593
Si      -1.42969825       1.66159158       8.80578722
Si      -1.63098140      -2.41541455       9.89439991
Si      -3.60200120       2.00515602       6.88633004
Si       2.13126214       0.22594357       3.77870260
Si      -3.27140996       4.72894322       5.74016378
Si      -3.17120576      -1.32249483       7.34024658
Si      -1.85973817       6.98180928      -0.31078471
Si       1.38999224       1.40015951       5.22045182
Si       1.09075464       7.03632899      -1.04356671
Si      -0.16507098      -0.14638604       3.64889048
Si       3.27856674      -4.80080526       6.44263815
Si       0.76580374       1.61925884       3.38163305
Si      -3.83147839       3.89683052       7.48671931
Si      -2.72129351       4.70333909       3.80322606
Si      -1.88219632      -0.79165744       8.74785964
