16
Lattice="6.918315858223873 0.7100267418601779 0.9313529399638957 2.260815209499049 7.408742002312605 2.383167044088169 3.989138164239516 4.646357007398732 12.144776922252612" Properties=species:S:1:pos:R:3 unique_starting_index=30 config_type=initial n_minim_iter=1 energy=-2629.227507570458 free_energy=-2629.227507570458 pbc="T T T"
Si       7.48436456       7.79826326       9.01410042
Si       5.68390468       4.96686249       6.44519648
Si       4.27966419       4.31477906       5.18358835
Si       8.88860505       8.45034670      10.27570856
Si       8.66465379       6.97448062      11.54450546
Si       4.50361545       5.79064513       3.91479145
Si       5.12877389       4.85975985       1.43787321
Si       8.03949534       7.90536590      14.02142369
Si       3.79775757       5.58393057       6.66121638
Si       9.37051166       7.18119518       8.79808053
Si      10.14135732       8.07647089       7.17442137
Si       3.02691191       4.68865486       8.28487553
Si       4.28060462       3.69064362       7.08033241
Si       8.88766462       9.07448213       8.37896450
Si       5.58935425       7.43514931       3.77661273
Si       7.57891499       5.32997644      11.68268418
16
Lattice="6.927118403991507 0.7158102121751364 0.9432891802709503 2.273498975230602 7.415914955445686 2.381397507804948 4.019672271351133 4.64714258818538 12.139566474422978" Properties=species:S:1:pos:R:3 unique_starting_index=30 config_type=initial n_minim_iter=2 stress="-0.015440412787144078 0.011970349487444323 0.01193473110550917 0.011970349487444323 -0.013029226185601197 -0.005001420835683578 0.01193473110550917 -0.005001420835683578 -0.01804514580061704" pbc="T T T"
Si       7.51434614       7.80643499       9.01636877
Si       5.70594351       4.97243277       6.44788439
Si       4.29675551       4.31939829       5.18481916
Si       8.92353414       8.45946947      10.27943400
Si       8.70063697       6.98180941      11.54739997
Si       4.51965268       5.79705835       3.91685319
Si       5.14034815       4.86760882       1.44349609
Si       8.07994150       7.91125894      14.02075707
Si       3.81743661       5.58806845       6.66062922
Si       9.40285304       7.19079930       8.80362394
Si      10.17010491       8.08777510       7.18413695
Si       3.05018474       4.69109265       8.28011621
Si       4.30066578       3.69379365       7.08092138
Si       8.91962387       9.08507411       8.38333178
Si       5.60796405       7.44434810       3.78082506
Si       7.61232560       5.33451965      11.68342810
16
Lattice="6.939693522047932 0.7140574489047756 0.9460316920510968 2.275127970918486 7.426977439853972 2.384463525433905 4.028283753738088 4.6534666906902 12.151656280222047" Properties=species:S:1:pos:R:3 unique_starting_index=30 config_type=initial n_minim_iter=3 stress="0.03057072198272299 -0.0027562747526375924 0.004963228092676514 -0.0027562747526375924 0.024804077627414472 0.005441593657402025 0.004963228092676514 0.005441593657402025 0.0038041107886135485" pbc="T T T"
Si       7.52688258       7.81646025       9.02682464
Si       5.71622266       4.97804132       6.45532685
Si       4.30405848       4.32490612       5.19065751
Si       8.93904677       8.46959546      10.29149399
Si       8.71708346       6.99030268      11.56034438
Si       4.52602179       5.80419890       3.92180712
Si       5.14815692       4.87344466       1.44605016
Si       8.09494833       7.92105692      14.03610134
Si       3.82256702       5.59534030       6.66878599
Si       9.42053823       7.19916128       8.81336550
Si      10.18643251       8.09615193       7.19423809
Si       3.05667274       4.69834965       8.28791341
Si       4.30891598       3.69841830       7.08866311
Si       8.93418927       9.09608328       8.39348839
Si       5.61626627       7.45415345       3.78729401
Si       7.62683897       5.34034813      11.69485749
16
Lattice="6.933767768515613 0.7053097152169033 0.9437468912859525 2.2639579814446678 7.421419285399028 2.3818567327968436 4.013406734798997 4.636249199432686 12.176476791745243" Properties=species:S:1:pos:R:3 unique_starting_index=30 config_type=initial n_minim_iter=4 stress="0.010229269878740576 -0.02033365624575083 0.010862819931380363 -0.02033365624575083 -0.003502074297042282 0.008682593692460095 0.010862819931380363 0.008682593692460095 0.01208240947305873" pbc="T T T"
Si       7.50958231       7.80008693       9.03884372
Si       5.70155017       4.96289127       6.46323670
Si       4.29373344       4.31596564       5.19783927
Si       8.91739904       8.44701256      10.30424114
Si       8.69920000       6.97052677      11.57855970
Si       4.51193249       5.79245143       3.92352071
Si       5.13908612       4.86653517       1.44009696
Si       8.07204637       7.89644303      14.06198346
Si       3.80572639       5.58026176       6.68233419
Si       9.40540610       7.18271644       8.81974622
Si      10.16317713       8.07386098       7.20142985
Si       3.04795535       4.68911722       8.30065056
Si       4.29863986       3.68874903       7.10104011
Si       8.91249262       9.07422917       8.40104031
Si       5.60325554       7.44367799       3.79302718
Si       7.60787695       5.31930021      11.70905324
16
Lattice="6.9348453320609345 0.7136322984709238 0.935676374459471 2.270476414014628 7.43201914892278 2.3735246524395186 4.00624516109522 4.637023147633124 12.169980995839397" Properties=species:S:1:pos:R:3 unique_starting_index=30 config_type=initial n_minim_iter=5 stress="0.014254595839339131 -0.009425879477355995 0.0006166372491285588 -0.009425879477355995 0.008593317353097882 -0.00440594239816699 0.0006166372491285588 -0.00440594239816699 0.016940567973802483" pbc="T T T"
Si       7.51083130       7.81208900       9.02561224
Si       5.70073561       4.97058560       6.45356978
Si       4.29384051       4.32291329       5.19092670
Si       8.91772640       8.45976130      10.28825532
Si       8.69724149       6.98134496      11.56490516
Si       4.51432542       5.80132964       3.91427686
Si       5.14440282       4.87816915       1.42985877
Si       8.06716409       7.90450544      14.04932325
Si       3.80485717       5.58546049       6.67496223
Si       9.40670974       7.19721410       8.80421979
Si      10.16569824       8.08972771       7.18479978
Si       3.04586866       4.69294688       8.29438224
Si       4.29616425       3.69347171       7.09390821
Si       8.91540265       9.08920289       8.38527381
Si       5.60946352       7.45742352       3.78312138
Si       7.60210339       5.32525108      11.69606064
16
Lattice="6.939049263688043 0.724752598213889 0.9311834431669535 2.2797465791316007 7.450682525444652 2.377603569931047 4.0076085944494535 4.66541934275323 12.153100797828694" Properties=species:S:1:pos:R:3 unique_starting_index=30 config_type=initial n_minim_iter=6 stress="0.01757384029475478 -0.011818327725143705 -0.004552893975617828 -0.011818327725143705 0.00922322939271741 0.009994608444260148 -0.004552893975617828 0.009994608444260148 -0.007059008444637822" pbc="T T T"
Si       7.52112210       7.84701311       9.01562391
Si       5.70528234       4.99384135       6.44626390
Si       4.29801064       4.34273428       5.18650575
Si       8.92839380       8.49812019      10.27538206
Si       8.70626584       7.02065293      11.54947589
Si       4.52013860       5.82020153       3.91241192
Si       5.15300022       4.89536153       1.42928556
Si       8.07340422       7.94549294      14.03260225
Si       3.80938682       5.60637064       6.66869427
Si       9.41701761       7.23448383       8.79319354
Si      10.17606367       8.12391820       7.17694200
Si       3.05034077       4.71693626       8.28494582
Si       4.30040473       3.71575959       7.08253481
Si       8.92599971       9.12509488       8.37935300
Si       5.62120199       7.48331836       3.78536485
Si       7.60520245       5.35753610      11.67652296
16
Lattice="6.9396190473170565 0.729563023750479 0.9342406306490514 2.284974508080795 7.456951099339101 2.3814623077564208 4.01418303377613 4.672635505884468 12.165067306841863" Properties=species:S:1:pos:R:3 unique_starting_index=30 config_type=initial n_minim_iter=7 stress="0.023154689903810616 -4.265405149535405e-05 -0.002803857650037144 -4.265405149535405e-05 0.02553451133563084 0.00987030220268259 -0.002803857650037144 0.00987030220268259 0.0005474618754950531" pbc="T T T"
Si       7.52920520       7.85807702       9.02617397
Si       5.70957138       5.00107260       6.45459627
Si       4.30162690       4.34903187       5.19289942
Si       8.93714969       8.51011776      10.28787082
Si       8.71480355       7.03282325      11.56285857
Si       4.52397304       5.82632638       3.91791168
Si       5.15649758       4.90191145       1.43217945
Si       8.08227901       7.95723818      14.04859079
Si       3.81462185       5.61254501       6.67584421
Si       9.42415474       7.24660462       8.80492604
Si      10.18240160       8.13563758       7.18688361
Si       3.05637499       4.72351205       8.29388663
Si       4.30541045       3.72241366       7.08984699
Si       8.93336614       9.13673597       8.39092325
Si       5.62753191       7.49260570       3.79207038
Si       7.61124468       5.36654393      11.68869987
16
Lattice="6.947767103519421 0.7215924463470919 0.9350843681414359 2.2823105717970673 7.444580498806064 2.3692150441278694 4.0191478642165634 4.6449514967223005 12.155430465059007" Properties=species:S:1:pos:R:3 unique_starting_index=30 config_type=initial n_minim_iter=8 stress="0.027148154316309927 -0.003690714513569483 0.0029688804686459256 -0.003690714513569483 0.012113676744246417 -0.0017952827138878113 0.0029688804686459256 -0.0017952827138878113 -0.014064232350534351" pbc="T T T"
Si       7.53525855       7.83017544       9.01242657
Si       5.71396699       4.98094900       6.44730330
Si       4.30317280       4.33379523       5.18643810
Si       8.94605274       8.47732921      10.27329178
Si       8.72498769       7.00111372      11.55139354
Si       4.52423785       5.81001072       3.90833633
Si       5.15872175       4.89017117       1.42359128
Si       8.09050379       7.92095327      14.03613860
Si       3.81570463       5.59287257       6.66365721
Si       9.43352091       7.21825187       8.79607267
Si      10.18833078       8.10706552       7.17301201
Si       3.06089476       4.70405892       8.28671787
Si       4.31064485       3.70434520       7.08263068
Si       8.93858069       9.10677924       8.37709920
Si       5.63089005       7.47642905       3.78123677
Si       7.61833549       5.33469539      11.67849311
16
Lattice="6.908645180799524 0.7183419106455171 0.92604473531258 2.2625054431204 7.441788650080482 2.374505895211506 3.976305405881751 4.6502467418655264 12.16797959038467" Properties=species:S:1:pos:R:3 unique_starting_index=30 config_type=initial n_minim_iter=9 stress="0.002693797264673448 0.005167980519751135 -0.00013319443102305752 0.005167980519751135 0.027441906689675503 -0.016219982530803673 -0.00013319443102305752 -0.016219982530803673 0.019718337366663737" pbc="T T T"
Si       7.47777243       7.82605593       9.01594075
Si       5.66968360       4.98432137       6.45258947
Si       4.26325198       4.33248687       5.18869470
Si       8.88420405       8.47789043      10.27983553
Si       8.66155348       7.00243909      11.55984626
Si       4.48590255       5.80793821       3.90868396
Si       5.12385340       4.88220007       1.41272153
Si       8.02360263       7.92817723      14.05580870
Si       3.77657721       5.59705275       6.66424201
Si       9.37087882       7.21332456       8.80428822
Si      10.10690462       8.10019774       7.16487188
Si       3.04055141       4.71017956       8.30365834
Si       4.27273548       3.70521249       7.08787885
Si       8.87472055       9.10516481       8.38065137
Si       5.59556657       7.47592679       3.78406836
Si       7.55188946       5.33445052      11.68446186
16
Lattice="6.908157460051757 0.7229460870604258 0.9169333964914452 2.2649561578750337 7.422058455991795 2.38347007261024 3.9609615537903364 4.654434466908383 12.180834118913184" Properties=species:S:1:pos:R:3 unique_starting_index=30 config_type=initial n_minim_iter=10 stress="0.020181761295211206 0.017698800827349117 -0.003337326944457108 0.017698800827349117 0.016366590106521868 -0.012484813294216466 -0.003337326944457108 -0.012484813294216466 0.04213178612754034" pbc="T T T"
Si       7.47008784       7.81601344       9.02343232
Si       5.66398733       4.98342557       6.45780527
Si       4.25554278       4.32846913       5.19200408
Si       8.87853240       8.47096988      10.28923351
Si       8.65170382       7.00160590      11.56888700
Si       4.48237135       5.79783311       3.91235059
Si       5.12536903       4.87109550       1.40829819
Si       8.00870614       7.92834351      14.07293940
Si       3.76850217       5.59043911       6.67010717
Si       9.36557300       7.20899990       8.81113042
Si      10.09676624       8.08896450       7.16389972
Si       3.03730893       4.71047451       8.31733787
Si       4.26304344       3.70546835       7.09451270
Si       8.87103173       9.09397066       8.38672489
Si       5.59833070       7.46230218       3.78866890
Si       7.53574447       5.33713683      11.69256869
16
Lattice="6.89012499031701 0.7145493356283372 0.9022295291496598 2.245695397033283 7.417446331941192 2.381867607766894 3.921384433837883 4.656574572665849 12.162327684006106" Properties=species:S:1:pos:R:3 unique_starting_index=30 config_type=initial n_minim_iter=11 stress="0.003307057002973279 0.013407683098112353 -0.007583070591416298 0.013407683098112353 0.011562510923843193 -0.007244607654890339 -0.007583070591416298 -0.007244607654890339 0.020696298090027414" pbc="T T T"
Si       7.42654206       7.80690312       9.00360736
Si       5.63066276       4.98166712       6.44281746
Si       4.22640921       4.32578841       5.17858328
Si       8.83079561       8.46278183      10.26784154
Si       8.60323922       6.99562093      11.54520405
Si       4.45396560       5.79294931       3.90122077
Si       5.10586342       4.86432769       1.39387454
Si       7.95134140       7.92424255      14.05255028
Si       3.73674876       5.58714490       6.65599839
Si       9.32045606       7.20142534       8.79042643
Si      10.04091400       8.07389770       7.13742006
Si       3.01629082       4.71467254       8.30900476
Si       4.23242690       3.70192994       7.08295384
Si       8.82477792       9.08664030       8.36347098
Si       5.57224475       7.45720855       3.77571029
Si       7.48496007       5.33136169      11.67071453
16
Lattice="6.876766842874129 0.702784209786007 0.8984292155599437 2.2293197845583994 7.403097026584699 2.3787089588006114 3.9007787457162895 4.639725553438941 12.162771642100468" Properties=species:S:1:pos:R:3 unique_starting_index=30 config_type=initial n_minim_iter=12 stress="-0.009469739007401749 0.005918310499749008 -0.0066385714939687255 0.005918310499749008 -0.006636564353258991 -0.012556147617967982 -0.0066385714939687255 -0.012556147617967982 0.01716783335471655" pbc="T T T"
Si       7.39835569       7.77768886       8.99925513
Si       5.60850968       4.96791793       6.44065469
Si       4.20462314       4.31020117       5.17685011
Si       8.80224223       8.43540562      10.26305970
Si       8.57377633       6.96498440      11.54543676
Si       4.43308904       5.78062239       3.89447306
Si       5.09266155       4.85469015       1.38257502
Si       7.91420383       7.89091664      14.05733480
Si       3.71449953       5.57133728       6.65127402
Si       9.29236584       7.17426951       8.78863580
Si       9.99698626       8.04081995       7.12428780
Si       3.00987912       4.70478684       8.31562201
Si       4.21294136       3.68681400       7.08047462
Si       8.79392401       9.05879279       8.35943520
Si       5.55119798       7.43615937       3.77088887
Si       7.45566739       5.30944742      11.66902094
16
Lattice="6.873587027217715 0.6981884983416964 0.8931102561921366 2.222952348237539 7.39069535620003 2.377575198069752 3.887579315291858 4.631101298646317 12.161489276805353" Properties=species:S:1:pos:R:3 unique_starting_index=30 config_type=initial n_minim_iter=13 stress="-0.003771637913020736 0.006593804493696038 -0.009085905904309518 0.006593804493696038 -0.004446779449654022 -0.011662417596251667 -0.009085905904309518 -0.011662417596251667 -0.0019069065444844036" pbc="T T T"
Si       7.38706495       7.76033992       8.99608658
Si       5.59705374       4.95964523       6.43608815
Si       4.19451891       4.29945710       5.17501858
Si       8.78959978       8.42052805      10.25715615
Si       8.56230644       6.94964442      11.54404893
Si       4.42181225       5.77034073       3.88812580
Si       5.08865446       4.84622453       1.37509210
Si       7.89546423       7.87376062      14.05708263
Si       3.70042525       5.56280819       6.64922056
Si       9.28369344       7.15717696       8.78295417
Si       9.97375117       8.02123316       7.11060679
Si       3.01036752       4.69875199       8.32156795
Si       4.20080436       3.68022001       7.07677964
Si       8.78331433       9.03976514       8.35539509
Si       5.54568088       7.42276776       3.76665440
Si       7.43843781       5.29721739      11.66552033
16
Lattice="6.854875446932205 0.676849212327326 0.9034112977017947 2.1950097843605114 7.382211208972964 2.402794280915255 3.872578590942831 4.639745903748143 12.214050102373282" Properties=species:S:1:pos:R:3 unique_starting_index=30 config_type=initial n_minim_iter=14 stress="-0.018331733624617604 -0.00942375888443105 -0.007042558552901886 -0.00942375888443105 -0.005663309705460438 0.011386986028467064 -0.007042558552901886 0.011386986028467064 0.012905836004593337" pbc="T T T"
Si       7.35773082       7.73825766       9.05220025
Si       5.56473300       4.96054866       6.46805543
Si       4.16514981       4.28761851       5.20796004
Si       8.75731402       8.41118782      10.31229564
Si       8.53944339       6.93764630      11.61508170
Si       4.38302043       5.76116003       3.90517398
Si       5.06034088       4.82660383       1.38595334
Si       7.86212294       7.87220249      14.13430234
Si       3.67019394       5.55738400       6.68346648
Si       9.25226988       7.14142233       8.83678920
Si       9.89576365       7.98661021       7.13885744
Si       3.02670017       4.71219612       8.38139824
Si       4.17251657       3.67609050       7.10637063
Si       8.74994725       9.02271583       8.41388505
Si       5.51818272       7.40544309       3.80166786
Si       7.40428111       5.29336323      11.71858782
16
Lattice="6.889967226878578 0.6745787240700997 0.9101770496068103 2.2048791979414903 7.385209962311638 2.4116304258160426 3.903881526074239 4.658082168173248 12.194747190839065" Properties=species:S:1:pos:R:3 unique_starting_index=30 config_type=initial n_minim_iter=15 stress="-0.0021299370797288665 -0.014637225292751518 -0.01109519861803997 -0.014637225292751518 0.001571952258570278 0.011213950819696589 -0.01109519861803997 0.011213950819696589 0.012619818400877187" pbc="T T T"
Si       7.41262921       7.74974372       9.05739569
Si       5.58609874       4.96812713       6.45915898
Si       4.18567976       4.29199158       5.20157260
Si       8.81304819       8.42587927      10.31498206
Si       8.60411052       6.95462249      11.61484020
Si       4.39461743       5.76324837       3.90171447
Si       5.08559268       4.82821020       1.39503651
Si       7.91313527       7.88966066      14.12151815
Si       3.68903036       5.56287287       6.67422509
Si       9.30969759       7.15499799       8.84232958
Si       9.91648448       7.98622126       7.12435541
Si       3.08224347       4.73164959       8.39219926
Si       4.19532729       3.68233827       7.10009088
Si       8.80340066       9.03553258       8.41646379
Si       5.54589364       7.39653737       3.81154078
Si       7.45283431       5.32133349      11.70501388
16
Lattice="6.917105579027297 0.6870601210541184 0.923325974417171 2.231485200427493 7.374690973880137 2.420823898503305 3.9511915450325907 4.6697851081783 12.18436161823825" Properties=species:S:1:pos:R:3 unique_starting_index=30 config_type=initial n_minim_iter=16 stress="0.0092533046175502 -0.005338288515388839 -0.011528027662176345 -0.005338288515388839 0.0062916588270972035 0.01374369609736574 -0.011528027662176345 0.01374369609736574 0.005497116763620281" pbc="T T T"
Si       7.48288428       7.75693787       9.07164743
Si       5.61689804       4.97459833       6.45686406
Si       4.21419895       4.29594687       5.20128462
Si       8.88558337       8.43558934      10.32722687
Si       8.68374379       6.97134993      11.62658305
Si       4.41603854       5.76018627       3.90192844
Si       5.11590818       4.82929583       1.40903652
Si       7.98387415       7.90224038      14.11947497
Si       3.71788408       5.56254370       6.67326536
Si       9.38189825       7.16899250       8.85524613
Si       9.95047968       7.98263081       7.11754085
Si       3.14930264       4.74890540       8.41097064
Si       4.23051078       3.68159980       7.09863455
Si       8.86927154       9.04993640       8.42987694
Si       5.58601137       7.38203441       3.82352756
Si       7.51377095       5.34950179      11.70498393
16
Lattice="6.942063588194998 0.6964829973121525 0.940273105788248 2.2518314503511005 7.3805717280018595 2.444110102577912 3.9932522296225157 4.696135311723871 12.22673403358087" Properties=species:S:1:pos:R:3 unique_starting_index=30 config_type=initial n_minim_iter=17 stress="0.024276735806710123 -0.003792094325206075 -0.018649232906769956 -0.003792094325206075 0.016530780369130353 0.0038781865131400635 -0.018649232906769956 0.0038781865131400635 0.02203285977762019" pbc="T T T"
Si       7.54365473       7.78614747       9.12779858
Si       5.64349253       4.98704256       6.48331866
Si       4.23964841       4.30533777       5.23210859
Si       8.94749886       8.46785227      10.37900865
Si       8.75942644       7.00294779      11.69167352
Si       4.42772083       5.77024225       3.91944372
Si       5.14230571       4.83740674       1.43780946
Si       8.04484156       7.93578330      14.17330778
Si       3.74243031       5.57522512       6.69874103
Si       9.44471696       7.19796492       8.91237621
Si       9.97146154       7.99438327       7.14970971
Si       3.21568573       4.77880677       8.46140754
Si       4.25900190       3.69671599       7.13202454
Si       8.92814537       9.07647404       8.47909270
Si       5.61511164       7.38250039       3.84926272
Si       7.57203563       5.39068964      11.76185453
16
Lattice="6.96247476538748 0.7054852523835744 0.9392164456866082 2.2680614283958223 7.380297843544283 2.442213333321248 4.011823900585519 4.704125082128294 12.201244404746522" Properties=species:S:1:pos:R:3 unique_starting_index=30 config_type=initial n_minim_iter=18 stress="0.0177246511482476 0.001753103976711092 -0.0032287437071279253 0.001753103976711092 0.004089183768716652 0.003469142903742943 -0.0032287437071279253 0.003469142903742943 -0.010617468513750361" pbc="T T T"
Si       7.58020696       7.80147270       9.11315240
Si       5.66215313       4.98843547       6.46952178
Si       4.25605832       4.30592212       5.22109686
Si       8.98630177       8.48398606      10.36157732
Si       8.80605157       7.01727886      11.67363407
Si       4.43630853       5.77262932       3.90904011
Si       5.16514995       4.84134442       1.44527612
Si       8.07721015       7.94856376      14.13739807
Si       3.76188621       5.58127157       6.68443479
Si       9.48047388       7.20863660       8.89823939
Si       9.99769035       7.99910910       7.13462849
Si       3.24466974       4.79079908       8.44804569
Si       4.27805596       3.70185295       7.12360694
Si       8.96430413       9.08805523       8.45906725
Si       5.63321031       7.37923031       3.84339796
Si       7.60914978       5.41067787      11.73927622
16
Lattice="6.931230941437119 0.696561767234802 0.9437259185531512 2.248558484957053 7.377650602005626 2.4538154340917258 3.9951774585017565 4.718186165216204 12.194641658607898" Properties=species:S:1:pos:R:3 unique_starting_index=30 config_type=initial n_minim_iter=19 stress="0.010169248912722277 -0.004270974772725493 -0.007887938372328054 -0.004270974772725493 0.016350402186758643 -0.001747912414013644 -0.007887938372328054 -0.001747912414013644 0.002260271034291501" pbc="T T T"
Si       7.54102159       7.80681934       9.12370577
Si       5.63394529       4.98557919       6.46847724
Si       4.22768551       4.30068630       5.22227905
Si       8.94728138       8.49171223      10.36990396
Si       8.79068367       7.02530964      11.68419381
Si       4.38428321       5.76708889       3.90798921
Si       5.14366540       4.83454679       1.46001436
Si       8.03130148       7.95785174      14.13216865
Si       3.73613922       5.58431313       6.68037929
Si       9.43882767       7.20808540       8.91180372
Si       9.91589384       7.97659181       7.12528318
Si       3.25907304       4.81580672       8.46689984
Si       4.24973473       3.70284320       7.12941045
Si       8.92523215       9.08955533       8.46277256
Si       5.58887053       7.36747691       3.85468293
Si       7.58609636       5.42492163      11.73750008
16
Lattice="6.8939302312491995 0.6823696558965161 0.963361783919603 2.226174970487192 7.378348985249167 2.466356539371637 3.995055416021296 4.718838449301643 12.220534196517162" Properties=species:S:1:pos:R:3 unique_starting_index=30 config_type=initial n_minim_iter=20 stress="-0.0007742005923503211 -0.0019424374369110442 -0.007395082650843806 -0.0019424374369110442 0.007646019927912826 -0.005270627348503574 -0.007395082650843806 -0.005270627348503574 0.03494811020159214" pbc="T T T"
Si       7.50310757       7.80719632       9.16272796
Si       5.61205305       4.97236077       6.48752456
Si       4.20306767       4.28996823       5.24190337
Si       8.91209295       8.48958886      10.40834915
Si       8.79340522       7.01504374      11.73499333
Si       4.32175540       5.76451335       3.91525919
Si       5.12274099       4.82348841       1.48426229
Si       7.99241963       7.95606869      14.16599023
Si       3.71853344       5.57798288       6.70032195
Si       9.39662718       7.20157421       8.94993057
Si       9.83569234       7.94359929       7.14078559
Si       3.27946828       4.83595780       8.50946693
Si       4.22200846       3.69850063       7.15637225
Si       8.89315216       9.08105646       8.49388027
Si       5.53192485       7.35811085       3.87125773
Si       7.58323577       5.42144624      11.77899479
16
Lattice="6.875809380770188 0.6858265131801747 0.9742275863522593 2.2247939144941506 7.365783875394012 2.497509323660968 3.9975936468587228 4.74742395597608 12.26120750630861" Properties=species:S:1:pos:R:3 unique_starting_index=30 config_type=initial n_minim_iter=21 stress="-0.0034211540888593227 -0.004331677827376729 -0.010059712262037345 -0.004331677827376729 0.008726750027773383 -0.0007776994331516332 -0.010059712262037345 -0.0007776994331516332 0.020598674973781116" pbc="T T T"
Si       7.48903858       7.82640074       9.21233582
Si       5.60915837       4.97263360       6.52060860
Si       4.19877132       4.29800192       5.27543844
Si       8.89942562       8.50103242      10.45750598
Si       8.80269794       7.03435677      11.79088121
Si       4.29549900       5.76467757       3.94206321
Si       5.12348026       4.81294086       1.50879738
Si       7.97471669       7.98609348      14.22414704
Si       3.71855301       5.58918980       6.73130371
Si       9.37964394       7.20984455       9.00164071
Si       9.81062779       7.94292211       7.19018090
Si       3.28756915       4.85611224       8.54276352
Si       4.21199473       3.70527029       7.18777859
Si       8.88620221       9.09376406       8.54516583
Si       5.51242065       7.35517736       3.91197446
Si       7.58577630       5.44385698      11.82096996
