22
Lattice="9.300338817812115 -0.192493858543752 -1.0957286961120016 -4.090199679945807 8.354856227958154 1.0957286961120136 -3.52867673481982 -3.4916310489485234 7.942979951272899" Properties=species:S:1:pos:R:3 unique_starting_index=6 config_type=initial n_minim_iter=12 energy=-3590.6479513513536 free_energy=-3590.6479513513536 pbc="T T T"
Si      -4.11974892       5.76363383       6.81591642
Si       2.13558585       1.24647860       5.48036282
Si       5.84424500       2.21454213      -0.62116484
Si      -0.48933880       0.11094955       4.21068662
Si       6.00727289      -1.22486821       1.36680900
Si      -0.65236669       3.55035989       2.22271279
Si       1.99222529       4.27096584       3.73221388
Si      -3.97638837       2.73914658       8.56406535
Si      -0.96759013       5.47102599       2.82297271
Si       0.63128597       6.23126728       3.76164826
Si       1.66298628       3.89487063       1.75767846
Si       1.48253806       5.58492748       0.69625033
Si       1.86173644      -0.29817486       4.18125224
Si       1.84531084      -2.06851431       5.11992780
Si       0.91708073       0.20183600       7.24665018
Si      -0.69186194      -0.34603001       6.18522205
Si      -2.06547737       2.15727562       1.90390315
Si       2.90774023       3.04869338       5.03876951
Si      -1.98345162       0.42677297       2.90413100
Si      -4.78840693       3.89535599       7.13472605
Si       2.60702415       4.07971655      -0.00003972
Si       2.88778562      -1.84352709       3.42358591
