22
Lattice="8.788881542837967 -2.9695388149500763 -2.845223742390505 -7.096350125028958 10.172267510170064 -0.2280273036942226 -6.6546167484066086 -1.4950983199520875 14.026301589458566" Properties=species:S:1:pos:R:3 unique_starting_index=18 config_type=initial n_minim_iter=1 energy=-3628.0371234499753 free_energy=-3628.0371234499753 pbc="T T T"
Si      -1.56912918       7.84475026      -0.66772442
Si      -1.08006334       0.28946543       6.91170718
Si      -5.52548016      -0.93165561      11.55337232
Si       0.09012138      -1.30436739      11.94420333
Si      -9.02438371       2.98779662      13.30220705
Si       5.91398372       1.01041698      -0.68896712
Si       5.03333365      -0.62621436      -1.43371322
Si      -2.10250386       0.74214026      10.51260330
Si      -2.69998674      -0.99057144      11.27764299
Si      -7.82069440       2.58601924       8.36819661
Si       0.28508391       0.39549228       3.86381168
Si      -6.18822720       5.16231074       7.30035754
Si      -5.21875426      -0.44964254       9.64055016
Si      -2.71254590       6.32945478      -0.04844558
Si       0.01264920       1.33980404       5.58258105
Si      -0.94107751       6.65958007       0.87345520
Si      -2.20239180       1.42525862       3.94461210
Si       3.79985436      -5.20300265       7.50142399
Si      -0.35829403       2.18367814       3.80373656
Si      -6.60853121       4.17628211       8.82623072
Si      -5.55238931       3.41707933       7.20571203
Si      -3.21295528      -0.48041468       9.41078568
22
Lattice="8.762841057832144 -2.9615021689594303 -2.8669852309502764 -7.058242211500288 10.140195166487166 -0.17226350577276273 -6.676187901741884 -1.454774207125272 13.968179271230015" Properties=species:S:1:pos:R:3 unique_starting_index=18 config_type=initial n_minim_iter=2 stress="-0.018537106485139534 -0.012177517191506622 0.008720118822054755 -0.012177517191506622 -0.027330936893434337 -0.001236503598661484 0.008720118822054755 -0.001236503598661484 -0.01062887563125279" pbc="T T T"
Si      -1.55113774       7.82393094      -0.63299968
Si      -1.09687280       0.31017073       6.87893222
Si      -5.54248625      -0.89926016      11.50626607
Si       0.05092953      -1.26274274      11.87619639
Si      -9.02981061       3.01208207      13.26975987
Si       5.89617289       1.01287905      -0.70040488
Si       5.01923673      -0.62386212      -1.44371940
Si      -2.12647900       0.77188526      10.46615936
Si      -2.72636717      -0.95572626      11.22391656
Si      -7.81547032       2.59837174       8.35660065
Si       0.27262395       0.40718731       3.84386575
Si      -6.18227885       5.16670311       7.29724022
Si      -5.23007712      -0.42439902       9.60468581
Si      -2.69436640       6.31194904      -0.01867341
Si      -0.00396525       1.35443127       5.55753420
Si      -0.93374621       6.64744353       0.89147647
Si      -2.20590611       1.43074461       3.93419699
Si       3.75631212      -5.16263580       7.43388175
Si      -0.36622374       2.19032584       3.79205724
Si      -6.60677663       4.18645981       8.81290736
Si      -5.55156824       3.42642193       7.19656644
Si      -3.23185754      -0.45309818       9.36969015
22
Lattice="8.7774403781906 -2.955125771472456 -2.8922017288020525 -7.045521054434655 10.158922118911956 -0.14091843194029613 -6.7255043092791915 -1.4567726849664193 13.97973510070954" Properties=species:S:1:pos:R:3 unique_starting_index=18 config_type=initial n_minim_iter=3 stress="0.020933067473173254 0.017347932298901032 -0.0060276197631205985 0.017347932298901032 0.010479690891601102 0.0036933730160201555 -0.0060276197631205985 0.0036933730160201555 -0.007878631184136935" pbc="T T T"
Si      -1.53217396       7.84817928      -0.61683153
Si      -1.11462005       0.31859019       6.87988312
Si      -5.58199212      -0.90013388      11.51577641
Si       0.01864745      -1.25092366      11.87138943
Si      -9.07026996       3.01842510      13.29277961
Si       5.91006659       1.02954683      -0.71335174
Si       5.02944347      -0.61743854      -1.45645143
Si      -2.15423849       0.78444582      10.47035145
Si      -2.76116039      -0.95057096      11.22793024
Si      -7.84256884       2.60167223       8.37782975
Si       0.26457239       0.41418628       3.84287685
Si      -6.19780614       5.18017429       7.31736288
Si      -5.26305452      -0.42593088       9.61534242
Si      -2.68330913       6.32773385      -0.00230767
Si      -0.01566374       1.36621165       5.55881494
Si      -0.92305454       6.67124379       0.90063991
Si      -2.21721258       1.43408105       3.93935145
Si       3.73075269      -5.16168521       7.41674514
Si      -0.37126322       2.20231643       3.79480104
Si      -6.62875078       4.19590481       8.83195005
Si      -5.57188192       3.43612963       7.21472654
Si      -3.26259766      -0.44965386       9.37476760
22
Lattice="8.75910422745357 -2.9910577602648645 -2.928757113445181 -7.041833746557094 10.226521309240079 -0.12027916813402267 -6.731426867506905 -1.442873383007633 14.065376083827802" Properties=species:S:1:pos:R:3 unique_starting_index=18 config_type=initial n_minim_iter=4 stress="-0.04111604048041711 -0.005611304406437182 -0.014419870351378152 -0.005611304406437182 0.025252720682095716 -0.004434947318536246 -0.014419870351378152 -0.004434947318536246 -0.007538037552670724" pbc="T T T"
Si      -1.53743854       7.89582602      -0.60655910
Si      -1.12488546       0.32913341       6.91395295
Si      -5.58524651      -0.88796169      11.58428738
Si      -0.00830938      -1.25342508      11.93129553
Si      -9.07395214       3.05838340      13.37955135
Si       5.88699823       1.01935641      -0.73059133
Si       5.01995117      -0.63390483      -1.47389004
Si      -2.17303243       0.80164842      10.52947847
Si      -2.77652737      -0.94437158      11.29477163
Si      -7.83754093       2.64218392       8.44027532
Si       0.25423557       0.41651082       3.86178970
Si      -6.20118247       5.22400363       7.36840229
Si      -5.26307120      -0.41499744       9.67733618
Si      -2.68493793       6.36598861       0.01014623
Si      -0.03646186       1.37307068       5.59176053
Si      -0.93990945       6.71434114       0.90365600
Si      -2.22397839       1.44101402       3.95944278
Si       3.70637749      -5.19207325       7.44699860
Si      -0.38727052       2.21548811       3.81424069
Si      -6.63020782       4.22911129       8.88912786
Si      -5.58211669       3.47435472       7.27173844
Si      -3.27678456      -0.44030111       9.42808468
22
Lattice="8.804940744705807 -2.993038198070388 -2.9421740903135363 -7.08548805106694 10.192630248115893 -0.09942794632957687 -6.754946268056938 -1.3958561860582743 14.115961017197167" Properties=species:S:1:pos:R:3 unique_starting_index=18 config_type=initial n_minim_iter=5 stress="0.0031371207318939545 -0.006561472843274715 -0.007732915558821584 -0.006561472843274715 0.004080689761266724 0.010022496634519788 -0.007732915558821584 0.010022496634519788 0.016635274938623427" pbc="T T T"
Si      -1.54745603       7.87006743      -0.58450498
Si      -1.12262562       0.35062692       6.93972077
Si      -5.60248158      -0.85137855      11.62391373
Si       0.00027015      -1.21743969      11.97817531
Si      -9.11125955       3.08674765      13.43525784
Si       5.91510058       1.00685136      -0.72721624
Si       5.05059742      -0.63968540      -1.47498697
Si      -2.17636459       0.83211503      10.57556257
Si      -2.78208213      -0.90906544      11.34279562
Si      -7.87107062       2.66682803       8.47756452
Si       0.25911795       0.42427350       3.87958274
Si      -6.22819119       5.22822424       7.40512699
Si      -5.28146414      -0.38803949       9.71507909
Si      -2.70134595       6.34327511       0.02645945
Si      -0.03820333       1.38015669       5.62324502
Si      -0.95022073       6.69980632       0.91800618
Si      -2.23579950       1.43991915       3.97323371
Si       3.73000994      -5.15405635       7.47250632
Si      -0.39106363       2.21718378       3.83411625
Si      -6.65504446       4.23286529       8.92675560
Si      -5.61471137       3.49022847       7.31438273
Si      -3.28958120      -0.41141115       9.46251235
22
Lattice="8.804092099560657 -2.9425999167878722 -2.884002416421814 -7.0623725602818945 10.155047492529132 -0.16658135800803692 -6.724535279087665 -1.478670855947953 14.034079687180322" Properties=species:S:1:pos:R:3 unique_starting_index=18 config_type=initial n_minim_iter=6 stress="0.013861359449493026 0.012624686045638675 0.007251637277327368 0.012624686045638675 -0.0051063554563523334 -0.006925417143837561 0.007251637277327368 -0.006925417143837561 -0.006588415220873425" pbc="T T T"
Si      -1.51945330       7.86571263      -0.61665560
Si      -1.09639845       0.32096674       6.90163676
Si      -5.57197050      -0.92188146      11.55018239
Si       0.03832631      -1.26435755      11.92900056
Si      -9.07124408       2.99298582      13.32751380
Si       5.92909890       1.02859081      -0.70676989
Si       5.06178192      -0.61445369      -1.44314508
Si      -2.13652940       0.78399122      10.51752552
Si      -2.75140538      -0.96456592      11.29093369
Si      -7.84276898       2.61148760       8.40122756
Si       0.27688005       0.40974359       3.86533961
Si      -6.19021777       5.16856493       7.32246036
Si      -5.25681415      -0.45443857       9.65733339
Si      -2.68173261       6.32324580      -0.00937670
Si      -0.01762203       1.35484360       5.58888741
Si      -0.92093922       6.69127020       0.87872504
Si      -2.21829434       1.40807386       3.93538807
Si       3.73840449      -5.16257790       7.48255515
Si      -0.37706227       2.19389994       3.80828143
Si      -6.61062734       4.15119830       8.83476373
Si      -5.59883655       3.44513875       7.25943668
Si      -3.26717773      -0.46144459       9.41233927
22
Lattice="8.848710412390261 -2.987567912628156 -2.9266624465090563 -7.116806555466102 10.193406463956684 -0.1061279010168524 -6.769980083565555 -1.3956099005953382 14.098041936509464" Properties=species:S:1:pos:R:3 unique_starting_index=18 config_type=initial n_minim_iter=7 stress="0.01355006721870466 0.0022793239812906817 0.003915650878253768 0.0022793239812906817 -0.01996954036427078 0.013378560076688664 0.003915650878253768 0.013378560076688664 -0.013254444151749645" pbc="T T T"
Si      -1.55101835       7.88362177      -0.58026186
Si      -1.11567778       0.35814967       6.93462055
Si      -5.60533102      -0.85538356      11.59825108
Si       0.01644546      -1.20889497      11.96767953
Si      -9.13865738       3.08671774      13.41393346
Si       5.94692838       1.00841075      -0.71573345
Si       5.08768735      -0.64054919      -1.46159990
Si      -2.16463732       0.84032797      10.56775262
Si      -2.78004617      -0.90250680      11.34127232
Si      -7.88570664       2.69620895       8.46517214
Si       0.27050565       0.42747222       3.88580184
Si      -6.23740201       5.23048972       7.38180426
Si      -5.29184794      -0.40267329       9.70984231
Si      -2.70505744       6.34221219       0.02353561
Si      -0.03858256       1.38520871       5.61135413
Si      -0.94510825       6.70905667       0.91260846
Si      -2.23017549       1.43449710       3.95808494
Si       3.74279636      -5.14619721       7.49282442
Si      -0.40375790       2.21088506       3.83618170
Si      -6.65105081       4.20200704       8.89357030
Si      -5.65397802       3.51319708       7.32775950
Si      -3.29219412      -0.40601772       9.46283240
22
Lattice="8.868584447280682 -2.977801940734869 -2.994452597117819 -7.110943830309664 10.18134071138599 -0.06620501483406122 -6.8515813128914465 -1.3965300567412848 14.232741069737513" Properties=species:S:1:pos:R:3 unique_starting_index=18 config_type=initial n_minim_iter=8 stress="0.0013037851557374128 5.2183022505909095e-05 -0.018486938598577574 5.2183022505909095e-05 -0.01167867977623102 -0.00531853857011282 -0.018486938598577574 -0.00531853857011282 0.009346890158651061" pbc="T T T"
Si      -1.54625182       7.87149091      -0.57282956
Si      -1.15521927       0.36037211       6.99163280
Si      -5.66715244      -0.85911184      11.70303877
Si      -0.05187293      -1.20143961      12.04804155
Si      -9.21937794       3.08495352      13.55853553
Si       5.95472730       1.00963933      -0.75250973
Si       5.10241097      -0.62667523      -1.50293689
Si      -2.21500099       0.84060302      10.65359894
Si      -2.84185475      -0.89838905      11.43966126
Si      -7.93204415       2.70100056       8.56710498
Si       0.25217743       0.42891020       3.91451512
Si      -6.27440502       5.22441278       7.46139512
Si      -5.34529593      -0.41335775       9.81055017
Si      -2.69445377       6.33334785       0.03507274
Si      -0.07334554       1.38905220       5.64742076
Si      -0.94278167       6.70308603       0.92394890
Si      -2.25027353       1.42986748       3.99638802
Si       3.69198789      -5.13560477       7.53648270
Si      -0.42550392       2.20996807       3.86425840
Si      -6.68101126       4.18851396       8.98906808
Si      -5.70254287       3.51858669       7.41777833
Si      -3.34319985      -0.40246063       9.55734066
22
Lattice="8.860845438014719 -2.9987755828403544 -2.998401091609494 -7.105912791552937 10.219721713641396 -0.03535551057782224 -6.827587965566753 -1.3459256428420365 14.244384404667459" Properties=species:S:1:pos:R:3 unique_starting_index=18 config_type=initial n_minim_iter=9 stress="-0.004296564680461886 0.005326283992386605 0.003509309267231368 0.005326283992386605 0.00017798153584592386 0.015772214521921686 0.003509309267231368 0.015772214521921686 0.01340670364171265" pbc="T T T"
Si      -1.54896559       7.89599626      -0.54404320
Si      -1.14408981       0.39221184       7.00508782
Si      -5.64361502      -0.81853331      11.70904729
Si      -0.03634884      -1.15547631      12.06482257
Si      -9.19858937       3.15288429      13.58363547
Si       5.95183007       1.01156033      -0.74023507
Si       5.10084236      -0.62910161      -1.50414932
Si      -2.19278810       0.88574924      10.67478348
Si      -2.82224270      -0.85322638      11.45607942
Si      -7.91542051       2.75098558       8.58225722
Si       0.25937048       0.44732876       3.92750530
Si      -6.25927777       5.27392603       7.48293980
Si      -5.32461017      -0.38351735       9.82285183
Si      -2.68808236       6.35582860       0.05299638
Si      -0.07057201       1.41767191       5.66257520
Si      -0.93739084       6.73108065       0.95140902
Si      -2.24316810       1.44891639       4.00556501
Si       3.69538227      -5.12320398       7.54534769
Si      -0.41996656       2.23492064       3.87806549
Si      -6.64844760       4.23676698       9.01309210
Si      -5.69386304       3.56840197       7.44208183
Si      -3.32710029      -0.36378495       9.57848962
22
Lattice="8.970119470323155 -3.0938603913445872 -3.019735396584778 -7.254363261832487 10.330185594347608 0.0015729445782990865 -6.915253179114746 -1.2760223001397362 14.211415889239351" Properties=species:S:1:pos:R:3 unique_starting_index=18 config_type=initial n_minim_iter=10 stress="0.012456093643983845 -0.017123045579385925 -0.0008926128886784787 -0.017123045579385925 -0.004306962885704858 0.008447493814373312 -0.0008926128886784787 0.008447493814373312 -0.006023159175863126" pbc="T T T"
Si      -1.64021068       7.94286832      -0.52887706
Si      -1.17941772       0.41695573       6.98214058
Si      -5.70996179      -0.76538874      11.67109545
Si      -0.06588850      -1.14311124      12.01231414
Si      -9.34971901       3.27104882      13.56438254
Si       5.99494547       0.96359744      -0.75449881
Si       5.15378398      -0.67864993      -1.52171997
Si      -2.24425676       0.91788198      10.64338583
Si      -2.87103360      -0.81046832      11.42405420
Si      -8.03276204       2.85759392       8.57823792
Si       0.24707777       0.45488530       3.92298426
Si      -6.38360131       5.36169524       7.47058590
Si      -5.38401734      -0.34522344       9.80938565
Si      -2.75894784       6.40077219       0.05929824
Si      -0.11881242       1.42776887       5.63816384
Si      -1.00418186       6.76240151       0.95872821
Si      -2.29205984       1.47198916       3.99420873
Si       3.73538556      -5.17041486       7.52139847
Si      -0.45590209       2.25609936       3.85900454
Si      -6.72748827       4.32165347       9.00967718
Si      -5.80621498       3.65959784       7.44267741
Si      -3.37956237      -0.31902864       9.57690824
22
Lattice="8.96689802729363 -3.092038500057521 -3.050359656467945 -7.250676674136751 10.306941163877823 0.020218156789649052 -6.926942417238123 -1.2555151853800697 14.298298174383566" Properties=species:S:1:pos:R:3 unique_starting_index=18 config_type=initial n_minim_iter=11 stress="0.0026691678747174444 -0.0023442630940145237 0.0037913022523877837 -0.0023442630940145237 -0.004070931512953967 0.00600546255055297 0.0037913022523877837 0.00600546255055297 0.013920214801350252" pbc="T T T"
Si      -1.64723863       7.92587437      -0.52783666
Si      -1.18951265       0.42621603       7.02369574
Si      -5.71448641      -0.75316071      11.73628704
Si      -0.08132780      -1.12406267      12.07476666
Si      -9.36424059       3.28565010      13.65256923
Si       5.99187201       0.96069464      -0.76365811
Si       5.14883381      -0.68675347      -1.53948597
Si      -2.25095613       0.92700418      10.70760634
Si      -2.88172380      -0.79145503      11.49603812
Si      -8.03725046       2.87329220       8.63924632
Si       0.24104137       0.46140460       3.95215489
Si      -6.39333825       5.35804608       7.51867449
Si      -5.38328850      -0.34383155       9.87367479
Si      -2.75370548       6.37863628       0.06334161
Si      -0.13799052       1.42755727       5.66700562
Si      -1.00552599       6.74043351       0.97018227
Si      -2.29755956       1.46981391       4.01891390
Si       3.71713676      -5.15131416       7.56922608
Si      -0.46215579       2.25657462       3.87613982
Si      -6.70931677       4.32091075       9.07670744
Si      -5.81680780       3.66918442       7.49486465
Si      -3.39120107      -0.30404398       9.64599039
22
Lattice="9.01035419276999 -3.1394446028178313 -3.078110106438961 -7.308659095409397 10.359147644999585 0.06227110957591681 -6.966716411695206 -1.1944149445138217 14.325197661682422" Properties=species:S:1:pos:R:3 unique_starting_index=18 config_type=initial n_minim_iter=12 stress="0.0037420910193136196 -0.005873881718402884 0.009015569682662839 -0.005873881718402884 0.0012243400370804025 0.011694090358215671 0.009015569682662839 0.011694090358215671 0.013509493527852419" pbc="T T T"
Si      -1.68276486       7.95463094      -0.50800485
Si      -1.21448977       0.45206797       7.04305524
Si      -5.74049134      -0.70903021      11.75073488
Si      -0.10517512      -1.08807356      12.08509265
Si      -9.42731278       3.36189357      13.68602938
Si       6.00898167       0.93503361      -0.77516444
Si       5.17426014      -0.71061523      -1.55551826
Si      -2.27229636       0.97357902      10.73227561
Si      -2.90441099      -0.75066705      11.53110213
Si      -8.08127269       2.95771870       8.67792014
Si       0.22789617       0.48223315       3.97091551
Si      -6.45691066       5.41534106       7.54790414
Si      -5.40698037      -0.31851226       9.89757954
Si      -2.78446821       6.39680451       0.08198131
Si      -0.17093355       1.44601933       5.66306958
Si      -1.03099116       6.75693516       0.98323461
Si      -2.31559052       1.49434321       4.03197576
Si       3.73020451      -5.16091710       7.58416790
Si      -0.47974867       2.27635226       3.87624291
Si      -6.72112504       4.37992484       9.12546105
Si      -5.86210937       3.73057993       7.51403817
Si      -3.41763737      -0.26522677       9.67176605
22
Lattice="9.016060118421379 -3.16167709651093 -3.0528431847043227 -7.333445657500308 10.392937857111153 0.04618104385965496 -6.937915819395324 -1.1862131473937125 14.282705031291615" Properties=species:S:1:pos:R:3 unique_starting_index=18 config_type=initial n_minim_iter=13 stress="0.007548056650028351 -0.005331601904239698 0.010674918304107451 -0.005331601904239698 0.004270932270259668 0.006641953575846998 0.010674918304107451 0.006641953575846998 0.01042169618803556" pbc="T T T"
Si      -1.69702959       7.97076055      -0.50474602
Si      -1.21123374       0.45491534       7.03476983
Si      -5.70941510      -0.70971792      11.70782469
Si      -0.08038530      -1.08511922      12.05876328
Si      -9.42056695       3.38545791      13.62647225
Si       6.01394059       0.92285913      -0.76413187
Si       5.17434710      -0.72603427      -1.54399434
Si      -2.24214602       0.97615411      10.71212098
Si      -2.88174729      -0.74248082      11.51577336
Si      -8.06408457       3.01035837       8.65485523
Si       0.22602674       0.48980649       3.97128990
Si      -6.46848112       5.43797612       7.51593807
Si      -5.39097070      -0.33533712       9.86903730
Si      -2.79747576       6.40504401       0.07026847
Si      -0.18427523       1.44793745       5.63950882
Si      -1.03845407       6.77075669       0.96375918
Si      -2.31182636       1.50090588       4.01515741
Si       3.75869869      -5.18713748       7.60772624
Si      -0.48058115       2.28166744       3.85081651
Si      -6.67661641       4.39773393       9.10799772
Si      -5.85836585       3.75748434       7.46836375
Si      -3.39082189      -0.26356939       9.65248835
22
Lattice="8.998006100353347 -3.170430992698426 -3.0234960469529377 -7.331072605736455 10.419944116217017 0.013945134481377342 -6.893724116850873 -1.2061222990798972 14.24849131643042" Properties=species:S:1:pos:R:3 unique_starting_index=18 config_type=initial n_minim_iter=14 stress="0.0013953813953837223 -0.013563824636312179 0.0029914171327894753 -0.013563824636312179 -0.004413249790765082 -0.0037799734452535674 0.0029914171327894753 -0.0037799734452535674 0.012833498437786587" pbc="T T T"
Si      -1.70206543       7.98757711      -0.52153076
Si      -1.20552871       0.44565429       7.02986828
Si      -5.66730309      -0.73424689      11.67308753
Si      -0.05188462      -1.09270094      12.03369339
Si      -9.38339769       3.36823902      13.56844634
Si       6.00428107       0.91113573      -0.75771678
Si       5.16146288      -0.73094480      -1.52427334
Si      -2.21274869       0.95763083      10.69663611
Si      -2.85581050      -0.75122206      11.50216245
Si      -8.02313825       3.04494620       8.63517440
Si       0.22229049       0.48907314       3.96805938
Si      -6.45329281       5.44575240       7.48460502
Si      -5.35483598      -0.37484350       9.84147515
Si      -2.79574132       6.41803117       0.05253210
Si      -0.19576336       1.44466999       5.61818036
Si      -1.03337601       6.78450010       0.93904022
Si      -2.30555369       1.49677752       4.00326130
Si       3.77833086      -5.22251888       7.64487037
Si      -0.47154153       2.28315922       3.82256336
Si      -6.61665750       4.39737839       9.08483805
Si      -5.83820159       3.76746538       7.41642910
Si      -3.36403677      -0.28207604       9.64020261
22
Lattice="8.977779534355113 -3.1574033092993057 -2.996140325687001 -7.306919005946339 10.429960198308589 -0.01673014747255287 -6.867601800164408 -1.2485970633828523 14.198194545882107" Properties=species:S:1:pos:R:3 unique_starting_index=18 config_type=initial n_minim_iter=15 stress="0.011059438094041 -0.0006763149792733216 -0.0030860966933889964 -0.0006763149792733216 0.017451201510086736 -0.007502739656066495 -0.0030860966933889964 -0.007502739656066495 0.01830845097250999" pbc="T T T"
Si      -1.68950751       8.00456908      -0.54676672
Si      -1.20472587       0.43180566       7.01041091
Si      -5.64226144      -0.77927191      11.62641716
Si      -0.04109265      -1.11191207      11.99540789
Si      -9.34852879       3.32785473      13.48976315
Si       6.00091523       0.91609108      -0.75438959
Si       5.15190560      -0.72500882      -1.51001900
Si      -2.20126266       0.93273585      10.66536913
Si      -2.84293549      -0.77818198      11.47771436
Si      -7.99299736       3.05254643       8.60990463
Si       0.21520499       0.48340520       3.95233608
Si      -6.42677226       5.43780593       7.45140328
Si      -5.33870757      -0.43737409       9.80069667
Si      -2.77365848       6.42005353       0.03539108
Si      -0.21493572       1.44147647       5.58908495
Si      -1.01719515       6.79614543       0.91044532
Si      -2.29409221       1.48749984       3.98909384
Si       3.78516953      -5.25382364       7.67305907
Si      -0.46700488       2.27677130       3.79032659
Si      -6.55244966       4.38873006       9.04891743
Si      -5.82080935       3.76155355       7.35080306
Si      -3.34039772      -0.31431205       9.61326335
22
Lattice="8.961963357548925 -3.1485144798520452 -2.9710291259699386 -7.295171408644997 10.425698209796016 -0.045208139365998413 -6.844239747678185 -1.2797780183645728 14.146789515262363" Properties=species:S:1:pos:R:3 unique_starting_index=18 config_type=initial n_minim_iter=16 stress="0.015112080747679302 0.0034176838209302226 -0.004484240573419711 0.0034176838209302226 0.019632082724164317 -0.010289430113831077 -0.004484240573419711 -0.010289430113831077 0.019155109454336273" pbc="T T T"
Si      -1.68496863       8.00141318      -0.56586264
Si      -1.20710524       0.41721812       6.98878248
Si      -5.62085425      -0.81631214      11.57996416
Si      -0.03526005      -1.13206174      11.95550914
Si      -9.31985427       3.29346071      13.41128029
Si       5.99962435       0.92009074      -0.74829753
Si       5.14038154      -0.72480251      -1.50554704
Si      -2.19709357       0.91140773      10.63164710
Si      -2.82891024      -0.80598397      11.45567258
Si      -7.96619984       3.06679978       8.58724493
Si       0.20945131       0.47524360       3.93496541
Si      -6.40940963       5.42532823       7.42112217
Si      -5.31909122      -0.49364668       9.75713401
Si      -2.76533077       6.41117405       0.01229846
Si      -0.23554553       1.43814296       5.55752268
Si      -1.00246260       6.79437345       0.88712055
Si      -2.29133365       1.47685416       3.97165371
Si       3.79806596      -5.27665767       7.69897323
Si      -0.46232378       2.26633803       3.75884483
Si      -6.50503392       4.37629955       9.00829622
Si      -5.81132109       3.75469566       7.28379890
Si      -3.32534636      -0.34235186       9.58468816
22
Lattice="8.957455730386412 -3.1307785472870275 -2.9214126245223557 -7.29462767819287 10.410562068863502 -0.09840687074544034 -6.811506875315472 -1.3304860311041151 14.055003822754044" Properties=species:S:1:pos:R:3 unique_starting_index=18 config_type=initial n_minim_iter=17 stress="-0.005201994094485096 -0.005786269054612929 -0.007447239693521258 -0.005786269054612929 0.018426461043004518 -0.004030789810688438 -0.007447239693521258 -0.004030789810688438 -6.841800464424283e-05" pbc="T T T"
Si      -1.68088984       7.98734130      -0.59362254
Si      -1.19619238       0.39490755       6.94234766
Si      -5.59049572      -0.87126837      11.50035455
Si      -0.00518404      -1.16619230      11.88545961
Si      -9.28858085       3.23476611      13.28860920
Si       6.00556777       0.92363059      -0.73248628
Si       5.13631872      -0.71996399      -1.48355883
Si      -2.17781407       0.87325854      10.57163036
Si      -2.79875031      -0.84714914      11.40439969
Si      -7.94387287       3.06284578       8.52860254
Si       0.21766799       0.46088741       3.91085078
Si      -6.39546322       5.39450513       7.35892239
Si      -5.29292039      -0.56489316       9.68294963
Si      -2.75586013       6.39980514      -0.02253799
Si      -0.24530267       1.42383058       5.51724465
Si      -0.99750592       6.77411857       0.84742882
Si      -2.28314634       1.47209050       3.93972310
Si       3.82891001      -5.30000553       7.72136241
Si      -0.45213139       2.24865963       3.71618123
Si      -6.46135064       4.34798207       8.92683863
Si      -5.80246866       3.73443530       7.18679455
Si      -3.30413854      -0.38519759       9.52587279
22
Lattice="8.945605565735688 -3.101245245000456 -2.894401704721428 -7.277237358375342 10.371650837117857 -0.13705566521226342 -6.787556999771755 -1.373325302715623 14.028341272193535" Properties=species:S:1:pos:R:3 unique_starting_index=18 config_type=initial n_minim_iter=18 stress="-0.0011712394720700486 0.0012182307435849528 -0.007827671329904851 0.0012182307435849528 0.01814048797385033 -0.00609910770186616 -0.007827671329904851 -0.00609910770186616 0.0044424594977126464" pbc="T T T"
Si      -1.66306068       7.96531434      -0.61627421
Si      -1.19095194       0.37461266       6.92906531
Si      -5.56555726      -0.92248839      11.47324546
Si       0.00982825      -1.19102288      11.86622267
Si      -9.26269171       3.16955841      13.23464733
Si       6.00792951       0.93296654      -0.72285773
Si       5.13686899      -0.71117889      -1.47127952
Si      -2.16144571       0.83667156      10.56035537
Si      -2.77727933      -0.87462586      11.39779660
Si      -7.92531172       3.04826875       8.51388638
Si       0.22711440       0.44903964       3.90550811
Si      -6.37887188       5.35479448       7.33830832
Si      -5.27398481      -0.63165718       9.65462557
Si      -2.74320282       6.37834727      -0.04778806
Si      -0.25284067       1.41568958       5.49837780
Si      -0.98348795       6.74837374       0.82085207
Si      -2.27598757       1.46108593       3.92512430
Si       3.84184635      -5.29947149       7.77019713
Si      -0.44237344       2.23002447       3.69409530
Si      -6.41772862       4.31804595       8.89196800
Si      -5.79175954       3.70963737       7.12916071
Si      -3.28678104      -0.42226961       9.51233961
22
Lattice="8.942132983429197 -3.0832572318955873 -2.885218400922672 -7.266916744395802 10.35595706266918 -0.16103183624226394 -6.795233788276264 -1.4166880439912208 14.00594384685949" Properties=species:S:1:pos:R:3 unique_starting_index=18 config_type=initial n_minim_iter=19 stress="-0.001984367661288577 -0.003723884040282058 -0.012719394062610896 -0.003723884040282058 0.012454771990851285 -0.014283194148636689 -0.012719394062610896 -0.014283194148636689 -0.0042079130214944666" pbc="T T T"
Si      -1.65028763       7.96035936      -0.64613985
Si      -1.19744399       0.35782360       6.90318090
Si      -5.56653640      -0.97197244      11.45233292
Si       0.00221099      -1.22543761      11.83714039
Si      -9.27547863       3.11353431      13.18919346
Si       6.00850861       0.93899594      -0.72713409
Si       5.14209971      -0.70448301      -1.46797148
Si      -2.16288610       0.80721408      10.54423679
Si      -2.78348829      -0.91036623      11.38168847
Si      -7.92917586       3.04479581       8.51239089
Si       0.23306073       0.43503568       3.89829443
Si      -6.38420042       5.32769026       7.32705357
Si      -5.28051265      -0.70141250       9.62927951
Si      -2.74033486       6.36931786      -0.06743510
Si      -0.27469294       1.40771609       5.48117330
Si      -0.97602182       6.74006350       0.79863240
Si      -2.27621558       1.44970466       3.91677425
Si       3.83764209      -5.31386963       7.80491766
Si      -0.44063701       2.21440894       3.67126169
Si      -6.41168471       4.29768317       8.85834651
Si      -5.79997364       3.69751367       7.07492579
Si      -3.28676216      -0.46553691       9.50592331
22
Lattice="8.95096607707446 -3.0665978615066822 -2.862288213550928 -7.277302570487842 10.321335861029336 -0.1926718545544037 -6.782556765481974 -1.4400396181220605 13.985847987363902" Properties=species:S:1:pos:R:3 unique_starting_index=18 config_type=initial n_minim_iter=20 stress="0.011791317967518436 0.003178948362688961 -0.004292673561263899 0.003178948362688961 0.002448228660095616 0.0004151852980637392 -0.004292673561263899 0.0004151852980637392 -0.0034945044786746666" pbc="T T T"
Si      -1.64557913       7.92688985      -0.66859885
Si      -1.19152816       0.34319776       6.88551382
Si      -5.55237631      -0.99935148      11.43808523
Si       0.02994153      -1.24778353      11.81984888
Si      -9.27496803       3.06576073      13.14671431
Si       6.01934483       0.94380797      -0.71607887
Si       5.15187794      -0.70433106      -1.45340322
Si      -2.14761312       0.78999664      10.53897528
Si      -2.76690702      -0.93230818      11.36949053
Si      -7.94360380       3.03701405       8.50685008
Si       0.25262340       0.42231060       3.90113177
Si      -6.38595378       5.30026216       7.31670666
Si      -5.26791649      -0.75706921       9.60302296
Si      -2.74370625       6.35262570      -0.08949441
Si      -0.27556222       1.40794593       5.46520281
Si      -0.97815393       6.72913222       0.77868627
Si      -2.26536493       1.43615453       3.90883248
Si       3.85705736      -5.31667032       7.84912286
Si      -0.43725127       2.19264346       3.66037014
Si      -6.40328365       4.28569899       8.82024549
Si      -5.80551448       3.69199345       7.02213305
Si      -3.27740077      -0.50094724       9.50515562
22
Lattice="8.936063648427096 -3.050445088770991 -2.816002857347635 -7.275013328157961 10.292611268646883 -0.24682934584013863 -6.716414823897364 -1.4663602847128325 13.96308759719485" Properties=species:S:1:pos:R:3 unique_starting_index=18 config_type=initial n_minim_iter=21 stress="0.009078786751825153 0.006807779831560948 -0.0025395031938127955 0.006807779831560948 -0.004615964452673117 -2.832274945494877e-05 -0.0025395031938127955 -2.832274945494877e-05 -0.0030420725478884445" pbc="T T T"
Si      -1.63240575       7.90978425      -0.69874463
Si      -1.15958711       0.32494908       6.87206822
Si      -5.49684333      -1.01568881      11.42835421
Si       0.08640375      -1.27808014      11.81582646
Si      -9.22063091       3.01992326      13.10599904
Si       6.01906924       0.95588797      -0.68724803
Si       5.16132863      -0.70117945      -1.42719293
Si      -2.10483210       0.76227840      10.54045405
Si      -2.70074882      -0.95431473      11.36188608
Si      -7.92648316       3.02242093       8.49057713
Si       0.28752470       0.40569908       3.91189465
Si      -6.34725209       5.27774449       7.29618674
Si      -5.22108500      -0.81304444       9.57504808
Si      -2.73494339       6.33428700      -0.11927921
Si      -0.24536322       1.41591344       5.45555974
Si      -0.98521959       6.71039725       0.76124349
Si      -2.25063867       1.42356604       3.89269914
Si       3.88305663      -5.33238949       7.90344293
Si      -0.40774029       2.17530456       3.65573030
Si      -6.37777032       4.27276709       8.76221815
Si      -5.78026566       3.69629478       6.96543717
Si      -3.22927294      -0.53884723       9.50242919
