22
Lattice="5.2487288449785 -2.9225591670093296e-35 -9.431789540142722e-19 -2.394433401408457e-35 7.964672970104608 -3.800440999006939e-16 3.1562600259717017e-18 8.381058211250651e-16 17.56437945319079" Properties=species:S:1:pos:R:3 unique_starting_index=32 config_type=initial n_minim_iter=1 energy=-3577.751007931166 free_energy=-3577.751007931166 pbc="T T T"
Si       1.77698235       0.93045010       9.37597024
Si       3.47174649       7.03422287       9.37597024
Si       1.77698235       3.05188639       0.59378052
Si       3.47174649       4.91278658       0.59378052
Si       4.80287390       2.43037594      16.55947036
Si       0.44585494       5.53429703      16.55947036
Si       4.80287390       1.55196055       7.77728063
Si       0.44585494       6.41271242       7.77728063
Si       3.75536388       2.69528192      12.72437869
Si       1.49336497       5.26939105      12.72437869
Si       3.75536388       1.28705457       3.94218896
Si       1.49336497       6.67761840       3.94218896
Si       1.65892182       4.80028128      10.78878982
Si       3.58980702       3.16439169      10.78878982
Si       1.65892182       7.14672817       2.00660010
Si       3.58980702       0.81794480       2.00660010
Si       1.97823000       0.76385070       3.18888923
Si       3.27049884       7.20082227       3.18888923
Si       1.97823000       3.21848579      11.97107896
Si       3.27049884       4.74618718      11.97107896
Si       2.62436442       3.98233649       2.93720950
Si       2.62436442      -0.00000000      11.71939923
22
Lattice="5.247841715993593 -2.8486959319001773e-35 -1.4737491351786264e-18 1.642590089465528e-35 7.999677800760654 -3.7392508997964427e-16 1.2648532730882227e-18 8.246484277880734e-16 16.922353694878936" Properties=species:S:1:pos:R:3 unique_starting_index=32 config_type=initial n_minim_iter=2 stress="0.10947276785763481 8.376469828309343e-17 -2.345958439460866e-15 8.376469828309343e-17 0.09832980588871378 -4.110706661750048e-16 -2.345958439460866e-15 -4.110706661750048e-16 0.05820862288020628" pbc="T T T"
Si       1.77587846       0.91698492       9.02273983
Si       3.47196325       7.08269288       9.02273983
Si       1.77587846       3.08285398       0.56156298
Si       3.47196325       4.91682382       0.56156298
Si       4.80650252       2.44848373      15.94273696
Si       0.44133920       5.55119407      15.94273696
Si       4.80650252       1.55135517       7.48156012
Si       0.44133920       6.44832263       7.48156012
Si       3.75394681       2.71406546      12.29570602
Si       1.49389491       5.28561234      12.29570602
Si       3.75394681       1.28577344       3.83452917
Si       1.49389491       6.71390436       3.83452917
Si       1.67241181       4.83415411      10.36038738
Si       3.57542990       3.16552369      10.36038738
Si       1.67241181       7.16536259       1.89921053
Si       3.57542990       0.83431521       1.89921053
Si       1.96228374       0.76259620       3.09019288
Si       3.28555798       7.23708160       3.09019288
Si       1.96228374       3.23724270      11.55136972
Si       3.28555798       4.76243510      11.55136972
Si       2.62392086       3.99983890       2.83323012
Si       2.62392086      -0.00000000      11.29440696
22
Lattice="5.210519795396507 -9.847527980005672e-35 -1.7881501922910787e-18 -1.1071784179920133e-34 7.983784560518144 -5.021657355763605e-16 2.6374276626540358e-20 5.1381393816091185e-16 16.258818715639972" Properties=species:S:1:pos:R:3 unique_starting_index=32 config_type=initial n_minim_iter=3 stress="0.019666702000325657 -4.799640949893568e-16 1.0856500139529376e-15 -4.799640949893568e-16 0.08684672384276469 2.953942839015966e-16 1.0856500139529376e-15 2.953942839015966e-16 0.000863522664579919" pbc="T T T"
Si       1.76246789       0.89797603       8.65903973
Si       3.44805191       7.08580853       8.65903973
Si       1.76246789       3.09391625       0.52963037
Si       3.44805191       4.88986831       0.52963037
Si       4.77660784       2.45089763      15.30682552
Si       0.43391196       5.53288693      15.30682552
Si       4.77660784       1.54099465       7.17741617
Si       0.43391196       6.44278991       7.17741617
Si       3.72606667       2.71558479      11.84780381
Si       1.48445313       5.26819977      11.84780381
Si       3.72606667       1.27630749       3.71839446
Si       1.48445313       6.70747707       3.71839446
Si       1.67442104       4.83643389       9.92270225
Si       3.53609876       3.14735067       9.92270225
Si       1.67442104       7.13924295       1.79329289
Si       3.53609876       0.84454161       1.79329289
Si       1.93449653       0.75536511       2.98535876
Si       3.27602326       7.22841945       2.98535876
Si       1.93449653       3.23652717      11.11476812
Si       3.27602326       4.74725739      11.11476812
Si       2.60525990       3.99189228       2.72533021
Si       2.60525990      -0.00000000      10.85473957
22
Lattice="5.221993541922091 -9.152700307290695e-35 -1.7702388423162856e-18 -1.104389578303461e-34 7.919321692518969 -5.216383473085809e-16 6.765493918597327e-26 4.526748949054191e-16 16.020997310062675" Properties=species:S:1:pos:R:3 unique_starting_index=32 config_type=initial n_minim_iter=4 stress="0.08584729161610752 1.675700375652455e-18 -1.5887690143093804e-15 1.675700375652455e-18 0.035403970366722465 -1.3196716480267215e-15 -1.5887690143093804e-15 -1.3196716480267215e-15 0.00048404429333047416" pbc="T T T"
Si       1.76591571       0.88229157       8.52750564
Si       3.45607783       7.03703012       8.52750564
Si       1.76591571       3.07736927       0.51700699
Si       3.45607783       4.84195242       0.51700699
Si       4.78915085       2.43473558      15.07765943
Si       0.43284269       5.48458611      15.07765943
Si       4.78915085       1.52492527       7.06716077
Si       0.43284269       6.39439643       7.06716077
Si       3.73348853       2.69701377      11.69134528
Si       1.48850502       5.22230792      11.69134528
Si       3.73348853       1.26264708       3.68084662
Si       1.48850502       6.65667462       3.68084662
Si       1.68433118       4.80233617       9.76207974
Si       3.53766236       3.11698552       9.76207974
Si       1.68433118       7.07664637       1.75158108
Si       3.53766236       0.84267533       1.75158108
Si       1.93232093       0.74436150       2.94964295
Si       3.28967261       7.17496019       2.94964295
Si       1.93232093       3.21529935      10.96014161
Si       3.28967261       4.70402235      10.96014161
Si       2.61099677       3.95966085       2.68713283
Si       2.61099677      -0.00000000      10.69763148
22
Lattice="5.2055579778377306 -8.728009533356012e-35 -1.768028756222495e-18 -1.0986264768860068e-34 7.904469532323535 -5.369903779681307e-16 4.05024121689705e-35 4.163006020779991e-16 16.000995431091262" Properties=species:S:1:pos:R:3 unique_starting_index=32 config_type=initial n_minim_iter=5 stress="0.06990602116097146 5.723148949298724e-16 7.534865467549312e-16 5.723148949298724e-16 0.04156324661914899 -1.8315217494550556e-15 7.534865467549312e-16 -1.8315217494550556e-15 0.035528525672550056" pbc="T T T"
Si       1.75997575       0.87529811       8.51369548
Si       3.44558223       7.02917142       8.51369548
Si       1.75997575       3.07693665       0.51319777
Si       3.44558223       4.82753288       0.51319777
Si       4.77522523       2.43257969      15.05547296
Si       0.43033275       5.47188984      15.05547296
Si       4.77522523       1.51965508       7.05497525
Si       0.43033275       6.38481446       7.05497525
Si       3.72031575       2.69412869      11.68745316
Si       1.48524223       5.21034085      11.68745316
Si       3.72031575       1.25810608       3.68695545
Si       1.48524223       6.64636345       3.68695545
Si       1.68335270       4.79664460       9.73988059
Si       3.52220528       3.10782493       9.73988059
Si       1.68335270       7.06005970       1.73938288
Si       3.52220528       0.84440983       1.73938288
Si       1.92475339       0.73930552       2.95115299
Si       3.28080459       7.16516402       2.95115299
Si       1.92475339       3.21292925      10.95165071
Si       3.28080459       4.69154028      10.95165071
Si       2.60277899       3.95223477       2.68505914
Si       2.60277899      -0.00000000      10.68555685
22
Lattice="5.284613121023445 1.8811902607772346e-35 -1.7279491777252796e-18 -1.1294157360298465e-34 8.000320517998517 -9.73366007051365e-16 -3.98978717502187e-36 -5.567762142885598e-16 15.638267647305542" Properties=species:S:1:pos:R:3 unique_starting_index=32 config_type=initial n_minim_iter=6 stress="0.024948223888579358 -3.5263084473866884e-16 1.5135427135254133e-15 -3.5263084473866884e-16 0.021734655470856942 -5.06670702585449e-16 1.5135427135254133e-15 -5.06670702585449e-16 0.026347399754540337" pbc="T T T"
Si       1.78343558       0.86656209       8.30821869
Si       3.50117754       7.13375843       8.30821869
Si       1.78343558       3.13359817       0.48908487
Si       3.50117754       4.86672235       0.48908487
Si       4.84995062       2.47291221      14.70197369
Si       0.43466250       5.52740831      14.70197369
Si       4.84995062       1.52724805       6.88283987
Si       0.43466250       6.47307246       6.88283987
Si       3.76268641       2.73560583      11.45493293
Si       1.52192671       5.26471469      11.45493293
Si       3.76268641       1.26455443       3.63579910
Si       1.52192671       6.73576608       3.63579910
Si       1.73549191       4.85633687       9.50081371
Si       3.54912121       3.14398365       9.50081371
Si       1.73549191       7.14414391       1.68167989
Si       3.54912121       0.85617661       1.68167989
Si       1.96341825       0.72993347       2.89067133
Si       3.32119487       7.27038705       2.89067133
Si       1.96341825       3.27022679      10.70980515
Si       3.32119487       4.73009373      10.70980515
Si       2.64230656       4.00016026       2.63242292
Si       2.64230656      -0.00000000      10.45155675
22
Lattice="5.343430847348478 8.227665618594619e-35 -1.6957735533772781e-18 -1.1475950791253817e-34 8.05700992769112 -1.221764317584049e-15 2.820386808492063e-36 -1.137237750239079e-15 15.347072147021445" Properties=species:S:1:pos:R:3 unique_starting_index=32 config_type=initial n_minim_iter=7 stress="-0.01355585821338177 -3.836494313004118e-15 3.0448766487727073e-15 -3.836494313004118e-15 0.015069245154402824 -4.257245090849349e-15 3.0448766487727073e-15 -4.257245090849349e-15 -0.03155248607938181" pbc="T T T"
Si       1.79902269       0.85385022       8.14250853
Si       3.54440816       7.20315971       8.14250853
Si       1.79902269       3.17465475       0.46897246
Si       3.54440816       4.88235518       0.46897246
Si       4.90472108       2.50179813      14.41708768
Si       0.43870977       5.55521179      14.41708768
Si       4.90472108       1.52670683       6.74355161
Si       0.43870977       6.53030310       6.74355161
Si       3.77197688       2.77081677      11.25751971
Si       1.57145397       5.28619316      11.25751971
Si       3.77197688       1.25768819       3.58398364
Si       1.57145397       6.79932174       3.58398364
Si       1.76699925       4.88605291       9.31246307
Si       3.57643160       3.17095702       9.31246307
Si       1.76699925       7.19946198       1.63892699
Si       3.57643160       0.85754795       1.63892699
Si       1.98938364       0.72625631       2.85048256
Si       3.35404721       7.33075362       2.85048256
Si       1.98938364       3.30224865      10.52401864
Si       3.35404721       4.75476128      10.52401864
Si       2.67171542       4.02850496       2.59149713
Si       2.67171542      -0.00000000      10.26503321
22
Lattice="5.359012164745407 1.3059794164047262e-34 -1.7033183087501368e-18 -1.152263956761272e-34 8.072199513478818 -1.424606347419897e-15 -1.4538641712531883e-36 -1.576089479074963e-15 15.415353613499256" Properties=species:S:1:pos:R:3 unique_starting_index=32 config_type=initial n_minim_iter=8 stress="0.003731715446473214 1.7960608477337688e-15 9.7493081614745e-16 1.7960608477337688e-15 -0.0035190164688537018 -4.223174741688373e-16 9.7493081614745e-16 -4.223174741688373e-16 0.004267003814490339" pbc="T T T"
Si       1.79872045       0.83445560       8.16827172
Si       3.56029172       7.23774391       8.16827172
Si       1.79872045       3.20164415       0.46059491
Si       3.56029172       4.87055536       0.46059491
Si       4.91950168       2.51948962      14.46988177
Si       0.43951049       5.55270990      14.46988177
Si       4.91950168       1.51661014       6.76220496
Si       0.43951049       6.55558937       6.76220496
Si       3.75143094       2.79344937      11.32403489
Si       1.60758122       5.27875014      11.32403489
Si       3.75143094       1.24265039       3.61635808
Si       1.60758122       6.82954913       3.61635808
Si       1.79309453       4.87877320       9.35184156
Si       3.56591763       3.19342631       9.35184156
Si       1.79309453       7.22952607       1.64416475
Si       3.56591763       0.84267345       1.64416475
Si       1.98675632       0.72604238       2.86679364
Si       3.37225584       7.34615714       2.86679364
Si       1.98675632       3.31005738      10.57447045
Si       3.37225584       4.76214213      10.57447045
Si       2.67950608       4.03609976       2.61064768
Si       2.67950608      -0.00000000      10.31832449
22
Lattice="5.439306156869163 4.044136750575456e-34 -1.748325603109966e-18 -1.2006645588699418e-34 8.267446449170126 -2.5809443647208514e-15 3.882677837279415e-39 -4.0822052220657165e-15 15.822678160050224" Properties=species:S:1:pos:R:3 unique_starting_index=32 config_type=initial n_minim_iter=9 stress="0.00953450869118842 -4.025641036831766e-17 3.663065379433524e-15 -4.025641036831766e-17 0.0210213694775528 -8.425370228152066e-16 3.663065379433524e-15 -8.425370228152066e-16 0.02691279991599521" pbc="T T T"
Si       1.80073923       0.78170073       8.36136515
Si       3.63856693       7.48574572       8.36136515
Si       1.80073923       3.35202249       0.45002607
Si       3.63856693       4.91542396       0.45002607
Si       4.99185084       2.62716064      14.81967931
Si       0.44745532       5.64028580      14.81967931
Si       4.99185084       1.50656258       6.90834023
Si       0.44745532       6.76088387       6.90834023
Si       3.77804533       2.93654736      11.61356574
Si       1.66126083       5.33089909      11.61356574
Si       3.77804533       1.19717587       3.70222666
Si       1.66126083       7.07027058       3.70222666
Si       1.86756797       5.01339618       9.64078471
Si       3.57173819       3.25405027       9.64078471
Si       1.86756797       7.38777350       1.72944563
Si       3.57173819       0.87967295       1.72944563
Si       2.00576175       0.68921081       2.95815139
Si       3.43354441       7.57823564       2.95815139
Si       2.00576175       3.44451242      10.86949047
Si       3.43354441       4.82293403      10.86949047
Si       2.71965308       4.13372322       2.69468388
Si       2.71965308      -0.00000000      10.60602296
22
Lattice="5.458180715472891 4.411597608686578e-34 -1.7554013808244626e-18 -1.1838968510608926e-34 8.256568782275577 -2.73805570645605e-15 -9.083877505530788e-42 -4.4018995822323865e-15 15.886715289809908" Properties=species:S:1:pos:R:3 unique_starting_index=32 config_type=initial n_minim_iter=10 stress="0.01581936946480128 -5.28851722341682e-15 3.709986399744231e-15 -5.28851722341682e-15 0.0005966955278781798 -1.0561568608223676e-14 3.709986399744231e-15 -1.0561568608223676e-14 0.027576835058182456" pbc="T T T"
Si       1.79402475       0.74343692       8.38396473
Si       3.66415597       7.51313186       8.38396473
Si       1.79402475       3.38484747       0.44060709
Si       3.66415597       4.87172131       0.44060709
Si       5.00972967       2.64570324      14.86314481
Si       0.44845105       5.61086555      14.86314481
Si       5.00972967       1.48258116       6.91978717
Si       0.44845105       6.77398763       6.91978717
Si       3.78252709       2.97169114      11.66505139
Si       1.67565363       5.28487764      11.66505139
Si       3.78252709       1.15659325       3.72169374
Si       1.67565363       7.09997553       3.72169374
Si       1.90145875       5.02349435       9.68787194
Si       3.55672196       3.23307443       9.68787194
Si       1.90145875       7.36135882       1.74451430
Si       3.55672196       0.89520996       1.74451430
Si       2.00137743       0.67236672       2.98153380
Si       3.45680329       7.58420206       2.98153380
Si       2.00137743       3.45591767      10.92489144
Si       3.45680329       4.80065111      10.92489144
Si       2.72909036       4.12828439       2.71316882
Si       2.72909036      -0.00000000      10.65652647
22
Lattice="5.381469001558605 3.7155327789238455e-34 -1.738494314532678e-18 -1.1409405982208714e-34 8.14060290652811 -2.4421280807208663e-15 3.199014562788313e-43 -3.750502585589014e-15 15.733703134585687" Properties=species:S:1:pos:R:3 unique_starting_index=32 config_type=initial n_minim_iter=11 stress="0.00117377203954955 -4.123299344035687e-15 -1.1736552474808637e-15 -4.123299344035687e-15 -0.008817140648595118 -6.389659799033651e-15 -1.1736552474808637e-15 -6.389659799033651e-15 -0.016385881882136747" pbc="T T T"
Si       1.75541511       0.70898987       8.30409376
Si       3.62605389       7.43161303       8.30409376
Si       1.75541511       3.36131158       0.43724219
Si       3.62605389       4.77929133       0.43724219
Si       4.94189550       2.62082132      14.71419505
Si       0.43957351       5.51978158      14.71419505
Si       4.94189550       1.44948013       6.84734348
Si       0.43957351       6.69112278       6.84734348
Si       3.75651380       2.92292836      11.56054602
Si       1.62495520       5.21767454      11.56054602
Si       3.75651380       1.14737309       3.69369445
Si       1.62495520       6.99322982       3.69369445
Si       1.86588394       4.97406401       9.59014281
Si       3.51558506       3.16653890       9.59014281
Si       1.86588394       7.23684035       1.72329124
Si       3.51558506       0.90376256       1.72329124
Si       1.96057224       0.67335479       2.95402827
Si       3.42089676       7.46724811       2.95402827
Si       1.96057224       3.39694666      10.82087984
Si       3.42089676       4.74365625      10.82087984
Si       2.69073450       4.07030145       2.68759934
Si       2.69073450      -0.00000000      10.55445090
22
Lattice="5.257835475832559 9.519590501669528e-35 -1.7345046099727003e-18 -1.1180587384328541e-34 8.082854486991556 -1.3114740502572208e-15 -1.8630141490529734e-44 -1.248375875094188e-15 15.6975955519398" Properties=species:S:1:pos:R:3 unique_starting_index=32 config_type=initial n_minim_iter=12 stress="0.0001756075299514331 -1.8324498775974362e-15 8.377276583039839e-16 -1.8324498775974362e-15 -0.017901457287651065 -5.212164375364108e-15 8.377276583039839e-16 -5.212164375364108e-15 -0.0019539716797667755" pbc="T T T"
Si       1.69509789       0.66880471       8.28383709
Si       3.56273759       7.41404978       8.28383709
Si       1.69509789       3.37262253       0.43503931
Si       3.56273759       4.71023195       0.43503931
Si       4.82911379       2.62458074      14.66974097
Si       0.42872169       5.45827374      14.66974097
Si       4.82911379       1.41684650       6.82094320
Si       0.42872169       6.66600799       6.82094320
Si       3.69244785       2.89524799      11.54566351
Si       1.56538762       5.18760650      11.54566351
Si       3.69244785       1.14617925       3.69686574
Si       1.56538762       6.93667523       3.69686574
Si       1.80405051       4.95202675       9.56972003
Si       3.45378497       3.13082774       9.56972003
Si       1.80405051       7.17225498       1.72092226
Si       3.45378497       0.91059951       1.72092226
Si       1.89530725       0.67455485       2.94356925
Si       3.36252823       7.40829963       2.94356925
Si       1.89530725       3.36687239      10.79236703
Si       3.36252823       4.71598210      10.79236703
Si       2.62891774       4.04142724       2.68609459
Si       2.62891774      -0.00000000      10.53489237
22
Lattice="5.1442887271366 -1.6416750534353677e-35 -1.721457071811315e-18 -1.1044427534931138e-34 8.132402282041724 -8.512952903245748e-16 1.8067891576905153e-46 -2.46193676444268e-16 15.579512857994615" Properties=species:S:1:pos:R:3 unique_starting_index=32 config_type=initial n_minim_iter=13 stress="-0.051461756249260915 -3.683394194453085e-15 6.267277104177875e-16 -3.683394194453085e-15 -0.0005119275091424928 -8.995253942706715e-15 6.267277104177875e-16 -8.995253942706715e-15 -0.006978357355846" pbc="T T T"
Si       1.60731662       0.56409732       8.20570371
Si       3.53697211       7.56830497       8.20570371
Si       1.60731662       3.50210382       0.41594728
Si       3.53697211       4.63029846       0.41594728
Si       4.72839103       2.70828416      14.52314948
Si       0.41589770       5.42411812      14.52314948
Si       4.72839103       1.35791698       6.73339305
Si       0.41589770       6.77448530       6.73339305
Si       3.60418127       2.92343111      11.49214606
Si       1.54010746       5.20897117      11.49214606
Si       3.60418127       1.14277003       3.70238963
Si       1.54010746       6.98963225       3.70238963
Si       1.75074638       4.99028628       9.50902797
Si       3.39354235       3.14211601       9.50902797
Si       1.75074638       7.20831715       1.71927154
Si       3.39354235       0.92408513       1.71927154
Si       1.82700495       0.67602896       2.92090965
Si       3.31728377       7.45637332       2.92090965
Si       1.82700495       3.39017218      10.71066608
Si       3.31728377       4.74223011      10.71066608
Si       2.57214436       4.06620114       2.68178811
Si       2.57214436      -0.00000000      10.47154454
22
Lattice="5.080658642736912 -5.559085848187416e-34 -1.6797216066904238e-18 -9.48524461448408e-35 8.297820607650653 1.3852005898044623e-15 -5.520254209266988e-47 4.715833158554105e-15 15.20179898633754" Properties=species:S:1:pos:R:3 unique_starting_index=32 config_type=initial n_minim_iter=14 stress="-0.06826552628084932 3.5495487440433723e-16 6.688237023391686e-16 3.5495487440433723e-16 -0.024651448641340303 -1.636463342531022e-14 6.688237023391686e-16 -1.636463342531022e-14 -0.011170108618686937" pbc="T T T"
Si       1.47694264       0.31406998       7.96464615
Si       3.60371601       7.98375063       7.96464615
Si       1.47694264       3.83484032       0.36374666
Si       3.60371601       4.46298028       0.36374666
Si       4.68014259       2.91788493      14.08867441
Si       0.40051605       5.37993568      14.08867441
Si       4.68014259       1.23102537       6.48777492
Si       0.40051605       7.06679524       6.48777492
Si       3.52302476       3.03603888      11.29358388
Si       1.55763388       5.26178173      11.29358388
Si       3.52302476       1.11287143       3.69268439
Si       1.55763388       7.18494918       3.69268439
Si       1.73307098       5.11907312       9.30063689
Si       3.34758766       3.17874749       9.30063689
Si       1.73307098       7.32765779       1.69973740
Si       3.34758766       0.97016282       1.69973740
Si       1.76583054       0.66158864       2.85613533
Si       3.31482811       7.63623197       2.85613533
Si       1.76583054       3.48732167      10.45703482
Si       3.31482811       4.81049894      10.45703482
Si       2.54032932       4.14891030       2.64925497
Si       2.54032932      -0.00000000      10.25015446
22
Lattice="5.108641924057781 -9.227842155638424e-34 -1.6563459739021267e-18 -8.525520927842287e-35 8.34947635860964 2.8713995093167184e-15 4.178119444029948e-46 8.09458239075499e-15 14.990245077992997" Properties=species:S:1:pos:R:3 unique_starting_index=32 config_type=initial n_minim_iter=15 stress="-0.05900275047891818 -6.129308763989038e-15 -4.391706628575656e-15 -6.129308763989038e-15 -0.015099452650864303 -1.9090848834310387e-14 -4.391706628575656e-15 -1.9090848834310387e-14 -0.013085515871840675" pbc="T T T"
Si       1.45598756       0.23953249       7.84227747
Si       3.65265437       8.10994387       7.84227747
Si       1.45598756       3.93520569       0.34715494
Si       3.65265437       4.41427067       0.34715494
Si       4.70982509       2.97988341      13.86911080
Si       0.39881683       5.36959295      13.86911080
Si       4.70982509       1.19485477       6.37398826
Si       0.39881683       7.15462159       6.37398826
Si       3.52255632       3.06442965      11.16674949
Si       1.58608560       5.28504671      11.16674949
Si       3.52255632       1.11030853       3.67162695
Si       1.58608560       7.23916783       3.67162695
Si       1.74658195       5.15820483       9.17203437
Si       3.36205998       3.19127153       9.17203437
Si       1.74658195       7.36600971       1.67691183
Si       3.36205998       0.98346665       1.67691183
Si       1.77225173       0.66048192       2.81713215
Si       3.33639020       7.68899444       2.81713215
Si       1.77225173       3.51425626      10.31225468
Si       3.33639020       4.83522010      10.31225468
Si       2.55432096       4.17473818       2.61863943
Si       2.55432096       0.00000000      10.11376197
22
Lattice="5.2693739102096595 -1.3495307738475483e-33 -1.6432625896328027e-18 -8.004316877242866e-35 8.320944413734395 4.634191652305029e-15 -2.273408133194461e-45 1.2002081605600065e-14 14.871837969975168" Properties=species:S:1:pos:R:3 unique_starting_index=32 config_type=initial n_minim_iter=16 stress="0.011884987294343308 -5.27671393384195e-15 -1.9579907591111916e-15 -5.27671393384195e-15 -0.014532961477475945 -8.280910205079433e-15 -1.9579907591111916e-15 -8.280910205079433e-15 -0.003670683191040798" pbc="T T T"
Si       1.49648610       0.21233509       7.78480362
Si       3.77288781       8.10860932       7.78480362
Si       1.49648610       3.94813712       0.34888464
Si       3.77288781       4.37280730       0.34888464
Si       4.86246693       2.97809144      13.75145658
Si       0.40690698       5.34285297      13.75145658
Si       4.86246693       1.18238077       6.31553760
Si       0.40690698       7.13856365       6.31553760
Si       3.60020682       3.04304457      11.09544952
Si       1.66916709       5.27789985      11.09544952
Si       3.60020682       1.11742764       3.65953053
Si       1.66916709       7.20351677       3.65953053
Si       1.80778560       5.14369611       9.09998679
Si       3.46158831       3.17724831       9.09998679
Si       1.80778560       7.33772052       1.66406780
Si       3.46158831       0.98322390       1.66406780
Si       1.85436741       0.67089724       2.78550608
Si       3.41500650       7.65004717       2.78550608
Si       1.85436741       3.48957496      10.22142506
Si       3.41500650       4.83136945      10.22142506
Si       2.63468696       4.16047221       2.58934967
Si       2.63468696       0.00000000      10.02526865
22
Lattice="5.278932841490419 -1.4071067734110142e-33 -1.6372705785337354e-18 -7.468666246013921e-35 8.310680049416645 4.878280296242384e-15 5.423864241893749e-44 1.2556111463585813e-14 14.817609133548277" Properties=species:S:1:pos:R:3 unique_starting_index=32 config_type=initial n_minim_iter=17 stress="-0.0008567661319737917 -4.564738026126415e-15 -1.2437490997905992e-15 -4.564738026126415e-15 0.02902278338922539 2.116168648661173e-15 -1.2437490997905992e-15 2.116168648661173e-15 0.014331041012482528" pbc="T T T"
Si       1.49567925       0.19766778       7.75628073
Si       3.78325360       8.11301227       7.75628073
Si       1.49567925       3.95767224       0.34747616
Si       3.78325360       4.35300781       0.34747616
Si       4.87238228       2.98067645      13.69639421
Si       0.40655056       5.33000360      13.69639421
Si       4.87238228       1.17466358       6.28758964
Si       0.40655056       7.13601647       6.28758964
Si       3.59842840       3.03685979      11.06287229
Si       1.68050445       5.27382026      11.06287229
Si       3.59842840       1.11848023       3.65406772
Si       1.68050445       7.19219982       3.65406772
Si       1.81164922       5.14270706       9.06497495
Si       3.46728362       3.16797299       9.06497495
Si       1.81164922       7.32331301       1.65617038
Si       3.46728362       0.98736703       1.65617038
Si       1.85750954       0.67131131       2.77468823
Si       3.42142330       7.63936874       2.77468823
Si       1.85750954       3.48402871      10.18349279
Si       3.42142330       4.82665134      10.18349279
Si       2.63946642       4.15534002       2.57923616
Si       2.63946642       0.00000000       9.98804073
22
Lattice="5.283370304119262 -1.395152446715295e-33 -1.6329461246938555e-18 -7.039124278170801e-35 8.295575883014115 4.838709868149162e-15 -1.7217421886140603e-42 1.2474174278997975e-14 14.778472006456678" Properties=species:S:1:pos:R:3 unique_starting_index=32 config_type=initial n_minim_iter=18 stress="-0.014661676584949906 -8.814665794791559e-15 1.5592615364862352e-15 -8.814665794791559e-15 0.008470427424156126 2.438006338289994e-15 1.5592615364862352e-15 2.438006338289994e-15 0.012520934000620697" pbc="T T T"
Si       1.49472881       0.18642187       7.73564577
Si       3.78864149       8.10915401       7.73564577
Si       1.49472881       3.96136607       0.34640977
Si       3.78864149       4.33420981       0.34640977
Si       4.87736692       2.98027665      13.65597148
Si       0.40600338       5.31529924      13.65597148
Si       4.87736692       1.16751129       6.26673548
Si       0.40600338       7.12806459       6.26673548
Si       3.59548399       3.03223837      11.03938088
Si       1.68788631       5.26333752      11.03938088
Si       3.59548399       1.11554958       3.65014488
Si       1.68788631       7.18002631       3.65014488
Si       1.81540917       5.13855960       9.03934290
Si       3.46796113       3.15701628       9.03934290
Si       1.81540917       7.30480422       1.65010690
Si       3.46796113       0.99077166       1.65010690
Si       1.85732932       0.66999890       2.76777309
Si       3.42604098       7.62557698       2.76777309
Si       1.85732932       3.47778904      10.15700909
Si       3.42604098       4.81778684      10.15700909
Si       2.64168515       4.14778794       2.57230918
Si       2.64168515       0.00000000       9.96154518
22
Lattice="5.280829976778302 -1.51184228197865e-33 -1.6244075883285903e-18 -6.762492026126167e-35 8.265658068734957 5.321054752472838e-15 1.5092485592153315e-41 1.3546963883905286e-14 14.70119663359412" Properties=species:S:1:pos:R:3 unique_starting_index=32 config_type=initial n_minim_iter=19 stress="-0.0004785533629081384 -1.0217436577602673e-14 3.841340534379339e-16 -1.0217436577602673e-14 0.009561537549348508 6.4181782416396324e-15 3.841340534379339e-16 6.4181782416396324e-15 0.003160762808225097" pbc="T T T"
Si       1.49310635       0.16772859       7.69944239
Si       3.78772363       8.09792948       7.69944239
Si       1.49310635       3.96510045       0.34884407
Si       3.78772363       4.30055762       0.34884407
Si       4.87629452       2.97482123      13.57723425
Si       0.40453546       5.29083684      13.57723425
Si       4.87629452       1.15800780       6.22663593
Si       0.40453546       7.10765027       6.22663593
Si       3.58641291       3.01518674      10.98978526
Si       1.69441706       5.25047133      10.98978526
Si       3.58641291       1.11764230       3.63918694
Si       1.69441706       7.14801577       3.63918694
Si       1.81281169       5.13227636       8.99150799
Si       3.46801829       3.13338171       8.99150799
Si       1.81281169       7.26621074       1.64090967
Si       3.46801829       0.99944733       1.64090967
Si       1.85061705       0.66667640       2.75047215
Si       3.43021293       7.59898166       2.75047215
Si       1.85061705       3.46615263      10.10107047
Si       3.43021293       4.79950544      10.10107047
Si       2.64041499       4.13282903       2.55556832
Si       2.64041499       0.00000000       9.90616664
22
Lattice="5.285096014910803 -1.4776501341499431e-33 -1.6116680903254826e-18 -6.506004307247129e-35 8.203018287497647 5.193184679060271e-15 -1.7966364819108058e-40 1.3253885356212144e-14 14.585901761480361" Properties=species:S:1:pos:R:3 unique_starting_index=32 config_type=initial n_minim_iter=20 stress="-0.005758511326326604 -1.1191887156430698e-14 3.4358381078460466e-15 -1.1191887156430698e-14 -0.0009839250778656689 -2.5781690842022064e-15 3.4358381078460466e-15 -2.5781690842022064e-15 -0.018292183890494543" pbc="T T T"
Si       1.51016427       0.15687483       7.65524813
Si       3.77493174       8.04614345       7.65524813
Si       1.51016427       3.94463431       0.36229724
Si       3.77493174       4.25838398       0.36229724
Si       4.88246827       2.94288867      13.46214362
Si       0.40262774       5.26012961      13.46214362
Si       4.88246827       1.15862047       6.16919274
Si       0.40262774       7.04439782       6.16919274
Si       3.56663843       2.97572497      10.91400730
Si       1.71845758       5.22729332      10.91400730
Si       3.56663843       1.12578417       3.62105642
Si       1.71845758       7.07723411       3.62105642
Si       1.81304827       5.11563799       8.91652146
Si       3.47204775       3.08738030       8.91652146
Si       1.81304827       7.18888944       1.62357058
Si       3.47204775       1.01412885       1.62357058
Si       1.84141820       0.65765208       2.72210172
Si       3.44367782       7.54536620       2.72210172
Si       1.84141820       3.44385706      10.01505260
Si       3.44367782       4.75916123      10.01505260
Si       2.64254801       4.10150914       2.52208891
Si       2.64254801       0.00000000       9.81503979
22
Lattice="5.284110219380518 -1.3131744998063351e-33 -1.6092725976096256e-18 -6.33411042981581e-35 8.190586518808026 4.524266033985171e-15 1.4255145619854557e-38 1.1775688179298543e-14 14.564222098258407" Properties=species:S:1:pos:R:3 unique_starting_index=32 config_type=initial n_minim_iter=21 stress="0.024492190813509306 7.651135322454072e-16 1.1210193727654859e-14 7.651135322454072e-16 0.0032904765401664134 -3.4929454401874457e-15 1.1210193727654859e-14 -3.4929454401874457e-15 -0.004148676270903046" pbc="T T T"
Si       1.51621503       0.15455615       7.64911303
Si       3.76789519       8.03603037       7.64911303
Si       1.51621503       3.94073711       0.36700198
Si       3.76789519       4.24984941       0.36700198
Si       4.88228504       2.93507085      13.43948600
Si       0.40182518       5.25551567      13.43948600
Si       4.88228504       1.16022241       6.15737495
Si       0.40182518       7.03036411       6.15737495
Si       3.55866415       2.96703838      10.90068131
Si       1.72544606       5.22354814      10.90068131
Si       3.55866415       1.12825488       3.61857026
Si       1.72544606       7.06233164       3.61857026
Si       1.81283508       5.11564436       8.90263502
Si       3.47127514       3.07494216       8.90263502
Si       1.81283508       7.17023542       1.62052397
Si       3.47127514       1.02035110       1.62052397
Si       1.83667051       0.65412738       2.71553861
Si       3.44743971       7.53645914       2.71553861
Si       1.83667051       3.44116588       9.99764966
Si       3.44743971       4.74942063       9.99764966
Si       2.64205511       4.09529326       2.51365943
Si       2.64205511       0.00000000       9.79577048
