6
Lattice="4.231770336309611 -2.583874859979002e-16 5.394057921925558e-13 2.548713731160687e-16 4.174184799230239 6.798710449123568e-14 -8.9562213477615e-13 -1.1444219416942987e-13 7.0263746465945065" Properties=species:S:1:pos:R:3 unique_starting_index=12 config_type=initial n_minim_iter=1 energy=-975.2053355997576 free_energy=-975.2053355997576 pbc="T T T"
Si       1.20728483       2.08709240       5.47051878
Si       1.20728483       2.08709240       1.55585587
Si       1.92482169       1.08696412       3.51318732
Si       1.92482169       3.08722068       3.51318732
Si      -0.06704459      -0.00000000      -0.00000000
Si       1.93359595      -0.00000000       0.00000000
6
Lattice="4.233594405335358 -2.584988617513808e-16 5.396382985243393e-13 2.548006411637852e-16 4.173026378664938 6.796249955828122e-14 -8.95717436733436e-13 -1.1446450118774265e-13 7.0271223137528365" Properties=species:S:1:pos:R:3 unique_starting_index=12 config_type=initial n_minim_iter=2 stress="-0.009774612065005541 5.458586452079863e-17 -2.6780220627166454e-17 5.458586452079863e-17 -0.007939171255099159 2.0238851373017722e-16 -2.6780220627166454e-17 2.0238851373017722e-16 -0.00746028676144159" pbc="T T T"
Si       1.20781046       2.08651319       5.47112727
Si       1.20781046       2.08651319       1.55599505
Si       1.92564931       1.08675677       3.51356116
Si       1.92564931       3.08626961       3.51356116
Si      -0.06720758      -0.00000000      -0.00000000
Si       1.93455714      -0.00000000       0.00000000
6
Lattice="4.235167456904789 -2.5859491064063713e-16 5.39838808727052e-13 2.548349764050746e-16 4.173588707970717 6.800843080070299e-14 -8.959183948880866e-13 -1.1442791598713018e-13 7.028698879614749" Properties=species:S:1:pos:R:3 unique_starting_index=12 config_type=initial n_minim_iter=3 stress="0.0037902564717823646 2.305271895706083e-17 1.6003428426942023e-15 2.305271895706083e-17 0.013946702474839904 3.4315307268428644e-16 1.6003428426942023e-15 3.4315307268428644e-16 -0.0068922008135499" pbc="T T T"
Si       1.20827134       2.08679435       5.47241071
Si       1.20827134       2.08679435       1.55628817
Si       1.92635952       1.08674653       3.51434944
Si       1.92635952       3.08684218       3.51434944
Si      -0.06724858      -0.00000000      -0.00000000
Si       1.93527836      -0.00000000       0.00000000
6
Lattice="4.247583518138309 -2.5935302239839665e-16 5.414214313207492e-13 2.544129262463006e-16 4.166676533661845 6.785613671765594e-14 -9.011357603938257e-13 -1.151630429169873e-13 7.069630387767697" Properties=species:S:1:pos:R:3 unique_starting_index=12 config_type=initial n_minim_iter=4 stress="3.2626559094103936e-05 8.277061165447517e-18 -2.9983212719138597e-16 8.277061165447517e-18 0.004369970267714773 9.970888203852025e-17 -2.9983212719138597e-16 9.970888203852025e-17 0.0024958822893960944" pbc="T T T"
Si       1.21215449       2.08333827       5.50577848
Si       1.21215449       2.08333827       1.56385191
Si       1.93184831       1.08339917       3.53481519
Si       1.93184831       3.08327736       3.53481519
Si      -0.06444416      -0.00000000      -0.00000000
Si       1.93758580      -0.00000000       0.00000000
6
Lattice="4.260558063149368 -2.6014523459351183e-16 5.430752414696551e-13 2.543359091411914e-16 4.1654151772940535 6.783984042316768e-14 -8.986830133708297e-13 -1.1484257145131878e-13 7.050387987621797" Properties=species:S:1:pos:R:3 unique_starting_index=12 config_type=initial n_minim_iter=5 stress="0.0006256167746186058 -2.3444234830586645e-17 9.9674659065391e-18 -2.3444234830586645e-17 -0.0015002289344002938 -8.128016841110298e-17 9.9674659065391e-18 -8.128016841110298e-17 -0.0020966901552749153" pbc="T T T"
Si       1.21759203       2.08270759       5.49265566
Si       1.21759203       2.08270759       1.55773233
Si       1.93624790       1.08282205       3.52519399
Si       1.93624790       3.08259313       3.52519399
Si      -0.06174732      -0.00000000      -0.00000000
Si       1.94014353      -0.00000000       0.00000000
6
Lattice="4.25901621957357 -2.600510912318172e-16 5.428787092173486e-13 2.5493420384578804e-16 4.175213816626697 6.803614845747064e-14 -9.002686917031229e-13 -1.1498339659096271e-13 7.062828021871811" Properties=species:S:1:pos:R:3 unique_starting_index=12 config_type=initial n_minim_iter=6 stress="-0.0009494183200958628 -2.949600411300514e-17 -2.407531488617788e-16 -2.949600411300514e-17 -0.0027759580995405228 -5.3928083870889435e-17 -2.407531488617788e-16 -5.3928083870889435e-17 0.0012307494865391355" pbc="T T T"
Si       1.22142123       2.08760691       5.50634712
Si       1.22142123       2.08760691       1.55648090
Si       1.93202450       1.08781238       3.53141401
Si       1.93202450       3.08740144       3.53141401
Si      -0.06283471      -0.00000000      -0.00000000
Si       1.93905686      -0.00000000       0.00000000
6
Lattice="4.248771624962368 -2.594255669627033e-16 5.415728742516534e-13 2.5447924682472036e-16 4.167762706451235 6.792603623407889e-14 -9.014064261356438e-13 -1.151100362767496e-13 7.071753826695987" Properties=species:S:1:pos:R:3 unique_starting_index=12 config_type=initial n_minim_iter=7 stress="-0.0020910412869131075 1.6954410114871612e-16 -6.934189418645312e-16 1.6954410114871612e-16 -0.006137742737271414 -2.2641908077037484e-16 -6.934189418645312e-16 -2.2641908077037484e-16 0.0027414164116069846" pbc="T T T"
Si       1.23225470       2.08388135       5.52505141
Si       1.23225470       2.08388135       1.54670241
Si       1.91587465       1.08407584       3.53587691
Si       1.91587465       3.08368687       3.53587691
Si      -0.06749291      -0.00000000      -0.00000000
Si       1.93466423      -0.00000000       0.00000000
6
Lattice="4.279057791747173 -2.612748087395719e-16 5.454333233045854e-13 2.548356881259181e-16 4.173600364259101 6.805412826773202e-14 -8.996456978131201e-13 -1.1482909219918835e-13 7.057940482469055" Properties=species:S:1:pos:R:3 unique_starting_index=12 config_type=initial n_minim_iter=8 stress="-0.0010255940105853615 1.6989646579857373e-17 1.567981672799897e-16 1.6989646579857373e-17 0.005664607656890858 6.95309246772212e-17 1.567981672799897e-16 6.95309246772212e-17 -0.0029406633734047425" pbc="T T T"
Si       1.27387784       2.08680018       5.53559627
Si       1.27387784       2.08680018       1.52234421
Si       1.90124560       1.08684803       3.52897024
Si       1.90124560       3.08675234       3.52897024
Si      -0.06546668      -0.00000000      -0.00000000
Si       1.93684054      -0.00000000       0.00000000
6
Lattice="4.32389320119869 -2.6401241210913134e-16 5.511483025287574e-13 2.5428638660137965e-16 4.164604116285305 6.777985932777848e-14 -9.168548576144005e-13 -1.1724540878718057e-13 7.192950549127517" Properties=species:S:1:pos:R:3 unique_starting_index=12 config_type=initial n_minim_iter=9 stress="0.005507528270589822 -7.684843765733368e-17 -8.169776211126466e-16 -7.684843765733368e-17 -0.018818185896013816 -5.440703732302409e-16 -8.169776211126466e-16 -5.440703732302409e-16 0.010379689901321798" pbc="T T T"
Si       1.36538768       2.08230206       5.63640760
Si       1.36538768       2.08230206       1.55654295
Si       1.84684686       1.08272090       3.59647527
Si       1.84684686       3.08188321       3.59647527
Si      -0.05995297      -0.00000000      -0.00000000
Si       1.94324971      -0.00000000       0.00000000
6
Lattice="4.3453649705538755 -2.653234559661108e-16 5.538852177765998e-13 2.543093259153247e-16 4.164979807499186 6.782661457530274e-14 -9.189533308947612e-13 -1.174447246425692e-13 7.209413585134746" Properties=species:S:1:pos:R:3 unique_starting_index=12 config_type=initial n_minim_iter=10 stress="0.006886884546380526 5.4084410477558245e-17 -2.5589158724237106e-16 5.4084410477558245e-17 -0.009180957389143493 -3.2017930079136183e-16 -2.5589158724237106e-16 -3.2017930079136183e-16 0.00912471478930001" pbc="T T T"
Si       1.41307918       2.08248990       5.65295553
Si       1.41307918       2.08248990       1.55645805
Si       1.81538488       1.08281753       3.60470679
Si       1.81538488       3.08216228       3.60470679
Si      -0.05565078      -0.00000000      -0.00000000
Si       1.94774351      -0.00000000       0.00000000
6
Lattice="4.32947768951257 -2.6435339514490017e-16 5.518601335364796e-13 2.544877800667707e-16 4.1679024605896835 6.787495236810001e-14 -9.104964941370054e-13 -1.163627190069626e-13 7.143067632887896" Properties=species:S:1:pos:R:3 unique_starting_index=12 config_type=initial n_minim_iter=11 stress="0.0023781029451313516 9.404708457538834e-17 1.371062994494554e-15 9.404708457538834e-17 0.011048997026493469 2.6699115568227245e-16 1.371062994494554e-15 2.6699115568227245e-16 -0.008728607551071878" pbc="T T T"
Si       1.39234297       2.08395123       5.59545218
Si       1.39234297       2.08395123       1.54761545
Si       1.81782105       1.08400480       3.57153382
Si       1.81782105       3.08389766       3.57153382
Si      -0.05248734      -0.00000000      -0.00000000
Si       1.95065492      -0.00000000       0.00000000
6
Lattice="4.320223160630997 -2.6378832325730085e-16 5.506804980444733e-13 2.5443893816008887e-16 4.167102546727379 6.785612646174461e-14 -9.150488907524425e-13 -1.1695373873635497e-13 7.178782297496936" Properties=species:S:1:pos:R:3 unique_starting_index=12 config_type=initial n_minim_iter=12 stress="-0.002434101589915355 -5.587859975278296e-17 -8.184357905823162e-16 -5.587859975278296e-17 -0.0011347942987038684 -2.5181106227924743e-17 -8.184357905823162e-16 -2.5181106227924743e-17 0.0033153568455676487" pbc="T T T"
Si       1.39709859       2.08355127       5.63701993
Si       1.39709859       2.08355127       1.54176237
Si       1.79929553       1.08376210       3.58939115
Si       1.79929553       3.08334045       3.58939115
Si      -0.04751130      -0.00000000      -0.00000000
Si       1.95543737      -0.00000000       0.00000000
6
Lattice="4.299637005663796 -2.6253135409175446e-16 5.480564683014154e-13 2.5382767783956325e-16 4.157091561550216 6.776287143646903e-14 -9.30532950838829e-13 -1.1881458466360674e-13 7.300258535067338" Properties=species:S:1:pos:R:3 unique_starting_index=12 config_type=initial n_minim_iter=13 stress="-0.015046085865359318 6.805432996718525e-17 -3.835123347227558e-15 6.805432996718525e-17 -0.035891696957372994 -8.312797216097914e-16 -3.835123347227558e-15 -8.312797216097914e-16 0.013981863035709589" pbc="T T T"
Si       1.43682016       2.07854578       5.72389848
Si       1.43682016       2.07854578       1.57636006
Si       1.64888164       1.07918812       3.65012927
Si       1.64888164       3.07790344       3.65012927
Si       0.04376469      -0.00000000       0.00000000
Si       2.04599257      -0.00000000       0.00000000
6
Lattice="4.275556659645044 -2.610610332625678e-16 5.449870488650528e-13 2.5381994769590666e-16 4.156964960246048 6.772021753523321e-14 -9.427094880395995e-13 -1.2043787994524517e-13 7.395786446838132" Properties=species:S:1:pos:R:3 unique_starting_index=12 config_type=initial n_minim_iter=14 stress="-0.035851737378999105 2.762142574040662e-17 -7.004641345238402e-15 2.762142574040662e-17 -0.027622164743036786 -8.426360085524404e-16 -7.004641345238402e-15 -8.426360085524404e-16 0.01900701851338551" pbc="T T T"
Si       1.47195106       2.07848248       5.79837707
Si       1.47195106       2.07848248       1.59740938
Si       1.43757761       1.07905761       3.69789322
Si       1.43757761       3.07790735       3.69789322
Si       0.19715631      -0.00000000       0.00000000
Si       2.19868015      -0.00000000       0.00000000
6
Lattice="4.2901448524233645 -2.6195177310844795e-16 5.468465438415942e-13 2.53897678319128e-16 4.158238002337708 6.798082135729127e-14 -9.445759007496753e-13 -1.2027209800061954e-13 7.410428910927551" Properties=species:S:1:pos:R:3 unique_starting_index=12 config_type=initial n_minim_iter=15 stress="-0.02959279213418302 5.739636517384322e-17 -5.862381252173136e-15 5.739636517384322e-17 -0.017982613849160115 -6.905670663819373e-16 -5.862381252173136e-15 -6.905670663819373e-16 0.01666108395323668" pbc="T T T"
Si       1.48380885       2.07911900       5.80460958
Si       1.48380885       2.07911900       1.60581933
Si       1.36137937       1.07960359       3.70521446
Si       1.36137937       3.07863441       3.70521446
Si       0.27538180      -0.00000000       0.00000000
Si       2.27716475      -0.00000000       0.00000000
6
Lattice="4.311172134542574 -2.6323567703807757e-16 5.495268021892272e-13 2.540445961407604e-16 4.160644165613014 6.839247827547573e-14 -9.377449349324189e-13 -1.1876689637565005e-13 7.356838313770031" Properties=species:S:1:pos:R:3 unique_starting_index=12 config_type=initial n_minim_iter=16 stress="-0.016665778808155906 -3.0471689740719247e-17 -1.608207175423028e-15 -3.0471689740719247e-17 -0.001991696979693937 8.997730258283006e-17 -1.608207175423028e-15 8.997730258283006e-17 -0.0034446539671656004" pbc="T T T"
Si       1.45236661       2.08032208       5.75192736
Si       1.45236661       2.08032208       1.60491096
Si       1.37065352       1.08060298       3.67841916
Si       1.37065352       3.08004119       3.67841916
Si       0.31748206      -0.00000000       0.00000000
Si       2.31980168      -0.00000000       0.00000000
6
Lattice="4.339463599229344 -2.6496312438388785e-16 5.5313299503734e-13 2.5419457569851243e-16 4.163100472818151 6.858509891416973e-14 -9.353627657422309e-13 -1.182027085926978e-13 7.338149613980343" Properties=species:S:1:pos:R:3 unique_starting_index=12 config_type=initial n_minim_iter=17 stress="-0.007219384469686068 2.9023667726849286e-17 -5.286381234571306e-16 2.9023667726849286e-17 0.005820567455292363 1.549121577851891e-16 -5.286381234571306e-16 1.549121577851891e-16 -0.002270145676952286" pbc="T T T"
Si       1.44710354       2.08155024       5.75193845
Si       1.44710354       2.08155024       1.58621116
Si       1.35970394       1.08174172       3.66907481
Si       1.35970394       3.08135875       3.66907481
Si       0.36058345      -0.00000000       0.00000000
Si       2.36348377      -0.00000000       0.00000000
6
Lattice="4.368837926227433 -2.6675669017377336e-16 5.568772157452998e-13 2.542827451588037e-16 4.16454447814678 6.870419825446949e-14 -9.300734750899283e-13 -1.1735796067267334e-13 7.2966538354653805" Properties=species:S:1:pos:R:3 unique_starting_index=12 config_type=initial n_minim_iter=18 stress="-0.0035335446855488907 1.4452008261803742e-17 3.997463481847232e-16 1.4452008261803742e-17 0.004939971770667284 6.65835681616058e-17 3.997463481847232e-16 6.65835681616058e-17 -0.006513239937754794" pbc="T T T"
Si       1.42183786       2.08227224       5.74135897
Si       1.42183786       2.08227224       1.55529486
Si       1.40134933       1.08244847       3.64832692
Si       1.40134933       3.08209601       3.64832692
Si       0.37215162      -0.00000000       0.00000000
Si       2.37559491      -0.00000000       0.00000000
6
Lattice="4.386260437499765 -2.678204905527281e-16 5.590979892627589e-13 2.5406624619777286e-16 4.160998741875423 6.866746319545849e-14 -9.321689331946746e-13 -1.1759508419383729e-13 7.313093216682653" Properties=species:S:1:pos:R:3 unique_starting_index=12 config_type=initial n_minim_iter=19 stress="-0.0004785783291669062 -6.848025140204135e-17 1.2935198158340184e-16 -6.848025140204135e-17 -0.00010926449047382314 1.8143940094838251e-16 1.2935198158340184e-16 1.8143940094838251e-16 -0.0009879006854434695" pbc="T T T"
Si       1.41200828       2.08049937       5.75818741
Si       1.41200828       2.08049937       1.55490581
Si       1.40481755       1.08072683       3.65654661
Si       1.40481755       3.08027191       3.65654661
Si       0.39516689      -0.00000000       0.00000000
Si       2.39877730      -0.00000000       0.00000000
6
Lattice="4.393367718237658 -2.6825445370673163e-16 5.600039241533813e-13 2.5403039017626854e-16 4.160411505819413 6.860078122986955e-14 -9.324311350752054e-13 -1.1772533698684384e-13 7.315150254549551" Properties=species:S:1:pos:R:3 unique_starting_index=12 config_type=initial n_minim_iter=20 stress="-0.000315718823531211 -6.765118719972606e-17 -2.2242609845405604e-17 -6.765118719972606e-17 -5.569666391626471e-06 -1.4314980654120976e-16 -2.2242609845405604e-17 -1.4314980654120976e-16 0.00015926759716572084" pbc="T T T"
Si       1.40753053       2.08020575       5.76190293
Si       1.40753053       2.08020575       1.55324733
Si       1.40779829       1.08042998       3.65757513
Si       1.40779829       3.07998153       3.65757513
Si       0.40348147      -0.00000000       0.00000000
Si       2.40711242      -0.00000000       0.00000000
