14
Lattice="8.196831772012484 -2.729488461462726 -0.29155759287613475 -1.8532411232001924 6.858732455605043 -0.6489927924225842 -3.816835834627368 0.8167347453645392 8.080433776136926" Properties=species:S:1:pos:R:3 unique_starting_index=20 config_type=initial n_minim_iter=1 energy=-2303.1574536688577 free_energy=-2303.1574536688577 pbc="T T T"
Si       2.06333582       1.98834301       7.14224981
Si       5.94106466       1.66541176       0.96107416
Si       0.46341899       2.95763573      -0.00236642
Si      -3.41430984       3.28056698       6.17880923
Si       4.07412026       1.69446498       4.40564693
Si       4.82201530       1.32577250       2.58584144
Si      -1.54736544       3.25151376       2.73423646
Si      -2.29526049       3.62020624       4.55404195
Si       0.23568305       3.58019836       1.88593170
Si      -0.87391777       3.11193821       5.87421750
Si       2.29107177       1.36578038       5.25395169
Si       3.40067258       1.83404053       1.26566590
Si       3.36585491       2.98177025      -0.37252559
Si      -0.83910010       1.96420849       7.51240898
14
Lattice="8.1956598206498 -2.7295193408041416 -0.2910410753373002 -1.8529616820187838 6.858959773778083 -0.6488378629464594 -3.8157824938655174 0.8169164905860982 8.078775009681431" Properties=species:S:1:pos:R:3 unique_starting_index=20 config_type=initial n_minim_iter=2 stress="-0.0006895082203808386 0.00022777288340586582 -0.00030258788592224935 0.00022777288340586582 -0.00304980861061997 -0.00018538165684366998 -0.00030258788592224935 -0.00018538165684366998 -0.002104484896242279" pbc="T T T"
Si       2.06352332       1.98859621       7.14117321
Si       5.94032753       1.66555462       0.96135373
Si       0.46339233       2.95776072      -0.00227714
Si      -3.41341188       3.28080230       6.17754234
Si       4.07384154       1.69466389       4.40516402
Si       4.82150903       1.32593820       2.58575095
Si      -1.54692590       3.25169303       2.73373205
Si      -2.29459339       3.62041872       4.55314513
Si       0.23576662       3.58037392       1.88571330
Si      -0.87341017       3.11218124       5.87317675
Si       2.29114902       1.36598300       5.25318277
Si       3.40032582       1.83417568       1.26571932
Si       3.36540636       2.98191399      -0.37216629
Si      -0.83849072       1.96444294       7.51106236
14
Lattice="8.19483637847218 -2.7311660054066644 -0.2900403853892099 -1.8530090251671214 6.862619864276176 -0.648703422936967 -3.814232904887389 0.8179524908812169 8.078740385460563" Properties=species:S:1:pos:R:3 unique_starting_index=20 config_type=initial n_minim_iter=3 stress="-0.0027819055505230615 -0.001568361745850907 0.003514968406833346 -0.001568361745850907 0.00011927340736199436 -0.0008741315904228845 0.003514968406833346 -0.0008741315904228845 0.0037523128689222794" pbc="T T T"
Si       2.06424182       1.99003386       7.14214572
Si       5.93985966       1.66642240       0.96249621
Si       0.46335263       2.95937249      -0.00214914
Si      -3.41226522       3.28298395       6.17750037
Si       4.07390532       1.69579974       4.40608794
Si       4.82117515       1.32675589       2.58687899
Si      -1.54631087       3.25360660       2.73390863
Si      -2.29358070       3.62265046       4.55311759
Si       0.23575266       3.58239527       1.88622386
Si      -0.87265956       3.11422422       5.87343176
Si       2.29184179       1.36701108       5.25377272
Si       3.40025401       1.83518213       1.26656482
Si       3.36502081       2.98349946      -0.37146770
Si      -0.83742637       1.96590689       7.51146427
14
Lattice="8.195891441450534 -2.7318351680916555 -0.29172616236503346 -1.8524043148532645 6.866276350684912 -0.6472381615973949 -3.816091854147496 0.819162994364083 8.077552936249566" Properties=species:S:1:pos:R:3 unique_starting_index=20 config_type=initial n_minim_iter=4 stress="8.340091183500443e-05 -0.0007237712657905225 -0.00029886573033208755 -0.0007237712657905225 0.0003157387768931238 0.0011806983752886734 -0.00029886573033208755 0.0011806983752886734 0.00014006298504858585" pbc="T T T"
Si       2.06352326       1.99238578       7.14053450
Si       5.94093641       1.66824761       0.96173016
Si       0.46387202       2.96121839      -0.00194589
Si      -3.41354113       3.28535656       6.17685845
Si       4.07399299       1.69792915       4.40457839
Si       4.82142872       1.32849887       2.58591723
Si      -1.54659772       3.25567503       2.73401022
Si      -2.29403345       3.62510530       4.55267138
Si       0.23572855       3.58476664       1.88635914
Si      -0.87359720       3.11674993       5.87246531
Si       2.29166672       1.36883754       5.25222947
Si       3.40099248       1.83685425       1.26612331
Si       3.36607756       2.98564436      -0.37145347
Si      -0.83868229       1.96795982       7.51004209
14
Lattice="8.195912073628328 -2.731345044999082 -0.29127277960460707 -1.8513971095749238 6.868285148194986 -0.6481170343250634 -3.8160998665106125 0.817745307236881 8.076931461673514" Properties=species:S:1:pos:R:3 unique_starting_index=20 config_type=initial n_minim_iter=5 stress="0.0006836491555975386 0.00016672786533792765 0.00044594461585748327 0.00016672786533792765 0.0013768125309462126 -0.0011165311854478724 0.00044594461585748327 -0.0011165311854478724 -0.00048469290839908116" pbc="T T T"
Si       2.06393322       1.99230503       7.13994599
Si       5.94161077       1.66969453       0.96172680
Si       0.46448188       2.96238038      -0.00240434
Si      -3.41319567       3.28499088       6.17581485
Si       4.07467292       1.69859404       4.40415316
Si       4.82202486       1.32927665       2.58583662
Si      -1.54625782       3.25609137       2.73338849
Si      -2.29360977       3.62540876       4.55170503
Si       0.23623359       3.58571085       1.88577439
Si      -0.87315928       3.11678663       5.87173420
Si       2.29218151       1.36897456       5.25176726
Si       3.40157438       1.83789878       1.26580745
Si       3.36685225       2.98724567      -0.37179517
Si      -0.83843715       1.96743974       7.50933682
14
Lattice="8.195144947080298 -2.730954518490074 -0.29191979030324183 -1.850232677710508 6.870065093082888 -0.6475469223284186 -3.8162227103473825 0.8180203102704714 8.077698468158252" Properties=species:S:1:pos:R:3 unique_starting_index=20 config_type=initial n_minim_iter=6 stress="-0.00205971295655182 0.0018955271339094384 -0.0003833886035756133 0.0018955271339094384 0.0006742890349155988 0.001614934644501087 -0.0003833886035756133 0.001614934644501087 0.0019452804901337558" pbc="T T T"
Si       2.06359161       1.99353855       7.14058656
Si       5.94163496       1.67129689       0.96202844
Si       0.46509795       2.96359234      -0.00235480
Si      -3.41294540       3.28583399       6.17620332
Si       4.07465946       1.70013813       4.40453662
Si       4.82207583       1.33041294       2.58604198
Si      -1.54596991       3.25699276       2.73369514
Si      -2.29338628       3.62671795       4.55218977
Si       0.23642499       3.58697995       1.88617084
Si      -0.87308657       3.11789933       5.87252113
Si       2.29226457       1.37015094       5.25206091
Si       3.40177612       1.83923155       1.26571063
Si       3.36735797       2.98865529      -0.37171896
Si      -0.83866841       1.96847559       7.50995071
14
Lattice="8.197520246199993 -2.733022105530642 -0.2919177547857252 -1.8514973558852363 6.873102479400117 -0.6477956408214419 -3.8174620601087224 0.8183520926225211 8.076580375193746" Properties=species:S:1:pos:R:3 unique_starting_index=20 config_type=initial n_minim_iter=7 stress="0.0020690868302283565 4.464082581216761e-05 0.0012853797184945964 4.464082581216761e-05 0.0008605315727512667 0.0020010320231446735 0.0012853797184945964 0.0020010320231446735 -4.629362403642544e-05" pbc="T T T"
Si       2.06339412       1.99327022       7.13958797
Si       5.94298926       1.67146230       0.96231389
Si       0.46516671       2.96516224      -0.00272099
Si      -3.41442843       3.28697016       6.17455309
Si       4.07542503       1.70033347       4.40402236
Si       4.82328443       1.32992508       2.58570404
Si      -1.54686420       3.25809899       2.73284462
Si      -2.29472360       3.62850738       4.55116294
Si       0.23558099       3.58826451       1.88566072
Si      -0.87405876       3.11867131       5.87184033
Si       2.29297984       1.37016796       5.25120626
Si       3.40261959       1.83976116       1.26502665
Si       3.36814906       2.98943496      -0.37184494
Si      -0.83958823       1.96899750       7.50871192
14
Lattice="8.196317525346684 -2.7356542312090517 -0.29416554758626295 -1.852051042186327 6.87691718772579 -0.6498033507599108 -3.820099719341658 0.8161091320457129 8.077348619019961" Properties=species:S:1:pos:R:3 unique_starting_index=20 config_type=initial n_minim_iter=8 stress="-0.0005676751683073103 -0.00014291458077895868 -0.0010210868788664534 -0.00014291458077895868 0.0019031590486216052 -1.2694771689738009e-05 -0.0010210868788664534 -1.2694771689738009e-05 0.00016395665297472926" pbc="T T T"
Si       2.05912240       1.99015483       7.13778355
Si       5.94110782       1.67134002       0.96004200
Si       0.46504436       2.96721726      -0.00440383
Si      -3.41694106       3.28603207       6.17333772
Si       4.07248140       1.69911366       4.40179240
Si       4.82107891       1.32814130       2.58317443
Si      -1.54831464       3.25825843       2.73158732
Si      -2.29691214       3.62923079       4.55020529
Si       0.23340433       3.58908360       1.88386907
Si      -0.87745801       3.11752934       5.87092965
Si       2.29076243       1.36828849       5.24951065
Si       3.40162477       1.83984275       1.26245007
Si       3.36752936       2.99030317      -0.37436430
Si      -0.84336260       1.96706892       7.50774402
14
Lattice="8.196313311792869 -2.738868581901668 -0.29531511523070897 -1.8547671093685327 6.877218008489737 -0.655948726661656 -3.823614091974562 0.8096770513889544 8.079570352802028" Properties=species:S:1:pos:R:3 unique_starting_index=20 config_type=initial n_minim_iter=9 stress="0.00018147027615178767 0.0003901611783436594 -0.00038424119346429906 0.0003901611783436594 0.0013756148460386851 0.00034258821626499854 -0.00038424119346429906 0.00034258821626499854 0.0001826325379785484" pbc="T T T"
Si       2.05219392       1.97820728       7.13734705
Si       5.93916856       1.66996969       0.95943398
Si       0.46573819       2.96981919      -0.00904054
Si      -3.42123645       3.27805679       6.16887253
Si       4.07031219       1.69495945       4.39903115
Si       4.81825732       1.32109972       2.58068584
Si      -1.55238008       3.25306703       2.72927536
Si      -2.30032521       3.62692676       4.54762067
Si       0.22842397       3.58655825       1.87964075
Si      -0.88478956       3.10945942       5.86995750
Si       2.28950814       1.36146823       5.24866576
Si       3.40272168       1.83856705       1.25834901
Si       3.36814906       2.98810175      -0.37751048
Si      -0.85021695       1.95992473       7.50581699
14
Lattice="8.19921398236558 -2.739290519273842 -0.29261275447985147 -1.8598278805422197 6.866679559551702 -0.6651897995944396 -3.8254881935918896 0.8000264303612877 8.081488705423045" Properties=species:S:1:pos:R:3 unique_starting_index=20 config_type=initial n_minim_iter=10 stress="0.0006800453222800456 -0.0003722849848608742 -0.00019092741797650716 -0.0003722849848608742 -0.000961150180163052 -0.0007056326406016152 -0.00019092741797650716 -0.0007056326406016152 0.0006633608325242947" pbc="T T T"
Si       2.04819459       1.96029167       7.13893483
Si       5.93953976       1.66332279       0.96130284
Si       0.46570331       2.96712380      -0.01524868
Si      -3.42564186       3.26409268       6.16238331
Si       4.07083529       1.68482836       4.39852033
Si       4.81670726       1.31021491       2.57989411
Si      -1.55693738       3.24258711       2.72516582
Si      -2.30280935       3.61720056       4.54379204
Si       0.22349191       3.57766763       1.87514630
Si      -0.89054431       3.09524888       5.86801844
Si       2.29040600       1.34974784       5.24853985
Si       3.40444222       1.83216659       1.25566771
Si       3.36882330       2.98088183      -0.38193412
Si      -0.85492539       1.94653364       7.50562028
14
Lattice="8.197833717683418 -2.728679821466451 -0.28478599734598725 -1.8529857812241468 6.8623964678446026 -0.6736965417229115 -3.82055353286724 0.786808682600743 8.07925351011699" Properties=species:S:1:pos:R:3 unique_starting_index=20 config_type=initial n_minim_iter=11 stress="0.000953884518147473 0.0003835676350889736 2.3023485529834873e-05 0.0003835676350889736 -0.0012845750875970416 -0.0010224148465427705 2.3023485529834873e-05 -0.0010224148465427705 0.0009513198034054238" pbc="T T T"
Si       2.05442785       1.95158094       7.14131983
Si       5.94563085       1.67016633       0.96536032
Si       0.46986655       2.96894439      -0.02054886
Si      -3.42133644       3.25035900       6.15541065
Si       4.07702253       1.68584587       4.40139208
Si       4.81870873       1.31130866       2.58106516
Si      -1.55272813       3.23467946       2.71937889
Si      -2.29441433       3.60921667       4.53970581
Si       0.22731649       3.57458912       1.87110505
Si      -0.88490434       3.08503325       5.86604197
Si       2.29697791       1.34593620       5.24966592
Si       3.40919874       1.83549208       1.25472900
Si       3.37474427       2.98378910      -0.38284267
Si      -0.85044986       1.93673623       7.50361364
14
Lattice="8.197158787273441 -2.7285108641887823 -0.28307229341678797 -1.85203452418086 6.864909737175489 -0.6749316518648971 -3.819092264360473 0.785335595715177 8.077322443327" Properties=species:S:1:pos:R:3 unique_starting_index=20 config_type=initial n_minim_iter=12 stress="0.001214239229612444 0.00043989968222665293 0.0001152392280011958 0.00043989968222665293 -0.00016932651139878012 -0.0009687647647628347 0.0001152392280011958 -0.0009687647647628347 0.000940625722939706" pbc="T T T"
Si       2.05564037       1.95085852       7.14139212
Si       5.94635739       1.67227985       0.96670700
Si       0.47039163       2.97087595      -0.02207362
Si      -3.42032539       3.24945462       6.15261150
Si       4.07818596       1.68728266       4.40140191
Si       4.81882579       1.31187965       2.58067150
Si      -1.55215396       3.23445181       2.71791659
Si      -2.29279379       3.60985482       4.53864700
Si       0.22810355       3.57589543       1.87008828
Si      -0.88379837       3.08475264       5.86473133
Si       2.29792845       1.34583904       5.24923022
Si       3.40983037       1.83698183       1.25458716
Si       3.37563088       2.98564338      -0.38287372
Si      -0.84959888       1.93609109       7.50219222
14
Lattice="8.192429238369412 -2.732278069768378 -0.28337904119582896 -1.853153472270226 6.867765856935979 -0.6752519715137887 -3.8173670944424165 0.7861762116762775 8.075093131109343" Properties=species:S:1:pos:R:3 unique_starting_index=20 config_type=initial n_minim_iter=13 stress="0.0005217658364877924 -0.00018970696706657256 -0.00023260296597347888 -0.00018970696706657256 -0.0001780864958173316 -0.000873353444664602 -0.00023260296597347888 -0.000873353444664602 0.0003923420442805165" pbc="T T T"
Si       2.05305842       1.94847298       7.14169063
Si       5.94326730       1.67267250       0.96714790
Si       0.46885025       2.97319102      -0.02522851
Si      -3.42135862       3.24899150       6.14931422
Si       4.07486235       1.68799467       4.40008533
Si       4.81424910       1.30938379       2.57995219
Si      -1.55295368       3.23366933       2.71637678
Si      -2.29234043       3.61228021       4.53650993
Si       0.22668505       3.57701661       1.86831510
Si      -0.88476081       3.08413685       5.86299317
Si       2.29522362       1.34464739       5.24814701
Si       3.40666949       1.83752715       1.25346894
Si       3.37354305       2.98587557      -0.38381114
Si      -0.85163438       1.93578843       7.50027326
14
Lattice="8.18401553348639 -2.740048928155779 -0.28223181800013347 -1.8554982479434243 6.874789957122972 -0.6750522779358542 -3.8121220037007943 0.7895571304213123 8.070729967161828" Properties=species:S:1:pos:R:3 unique_starting_index=20 config_type=initial n_minim_iter=14 stress="0.00047408050528694416 -0.0006555226528348446 0.0003216021047495986 -0.0006555226528348446 0.0012217181934311525 -0.0004544260930965356 0.0003216021047495986 -0.0004544260930965356 0.0005575196772720262" pbc="T T T"
Si       2.05069011       1.94547764       7.14295833
Si       5.93861116       1.67422527       0.97077883
Si       0.46570517       2.97882052      -0.02951246
Si      -3.42221587       3.25007289       6.14266704
Si       4.06990544       1.69085866       4.40028717
Si       4.80679996       1.30555862       2.58028139
Si      -1.55351015       3.23343950       2.71315870
Si      -2.29040468       3.61873954       4.53316448
Si       0.22497982       3.58003407       1.86442458
Si      -0.88492468       3.08481842       5.85926311
Si       2.29141546       1.34426409       5.24902129
Si       3.40131996       1.83947974       1.25418276
Si       3.37003119       2.98762052      -0.38398711
Si      -0.85363591       1.93667764       7.49743298
14
Lattice="8.16915684551911 -2.7504576026211502 -0.28081808056089014 -1.8573970580218648 6.885172923958376 -0.6720797185691245 -3.8017742425705725 0.7984466229491409 8.073883483264614" Properties=species:S:1:pos:R:3 unique_starting_index=20 config_type=initial n_minim_iter=15 stress="-0.0002981862961653514 -0.0007009731851416393 0.00046376891144424775 -0.0007009731851416393 0.0012333733554835199 0.00011469342942579223 0.00046376891144424775 0.00011469342942579223 0.00033891883610287266" pbc="T T T"
Si       2.04738828       1.94864420       7.15190479
Si       5.92958931       1.67690413       0.97884139
Si       0.46259727       2.98451775      -0.03091911
Si      -3.41960377       3.25625781       6.14214430
Si       4.06272410       1.69526164       4.40585563
Si       4.79482678       1.30461371       2.58513172
Si      -1.55273856       3.23790031       2.71513005
Si      -2.28484124       3.62854823       4.53585396
Si       0.22432900       3.58527248       1.86355505
Si      -0.88218961       3.09068951       5.86353822
Si       2.28565655       1.34788946       5.25743064
Si       3.39217516       1.84247244       1.25744747
Si       3.36196680       2.98643109      -0.38362970
Si      -0.85198126       1.94673086       7.50461538
14
Lattice="8.155088978252087 -2.7704899172609965 -0.2751162019403876 -1.866144122295963 6.9006915137842775 -0.668754171998374 -3.7869682043699617 0.8127385701813911 8.070267025161888" Properties=species:S:1:pos:R:3 unique_starting_index=20 config_type=initial n_minim_iter=16 stress="-0.0006569029273728799 -0.0003984440625326632 0.0005067592277368272 -0.0003984440625326632 0.00024239853772265523 0.00024077683538455968 0.0005067592277368272 0.00024077683538455968 0.00023680815378520235" pbc="T T T"
Si       2.04506489       1.95194373       7.16213960
Si       5.92190782       1.67848057       0.98982189
Si       0.45691176       2.99099644      -0.03574295
Si      -3.41993117       3.26445960       6.13657476
Si       4.05651903       1.69675818       4.41317833
Si       4.78244133       1.29936235       2.59115451
Si      -1.55454238       3.24618199       2.71321832
Si      -2.28046467       3.64357781       4.53524214
Si       0.22193552       3.59151383       1.85914337
Si      -0.87934556       3.09837749       5.86192778
Si       2.28004113       1.35142633       5.26725328
Si       3.38132221       1.84456267       1.26446888
Si       3.35177788       2.98040242      -0.38227096
Si      -0.84980123       1.96253774       7.50866761
14
Lattice="8.149782281156197 -2.7830295495029587 -0.27242491729487217 -1.8725088276088195 6.909878499094738 -0.6664498980626256 -3.780166938184961 0.8217392139840174 8.0682835258203" Properties=species:S:1:pos:R:3 unique_starting_index=20 config_type=initial n_minim_iter=17 stress="-0.0002776499662596589 2.6604675642617593e-05 0.00020899398587459798 2.6604675642617593e-05 -0.0002976490295244451 0.00013318348616861078 0.00020899398587459798 0.00013318348616861078 -0.00021124614560291338" pbc="T T T"
Si       2.04346532       1.95439059       7.16788695
Si       5.91901772       1.67973511       0.99523931
Si       0.45364120       2.99419757      -0.03847824
Si      -3.42191120       3.26885306       6.13416940
Si       4.05354251       1.69530310       4.41708572
Si       4.77714632       1.29728877       2.59429001
Si      -1.55643600       3.25328507       2.71232299
Si      -2.28003980       3.65129939       4.53511870
Si       0.22003919       3.59483250       1.85644423
Si      -0.87952914       3.10333106       5.86135799
Si       2.27706733       1.35375566       5.27296448
Si       3.37663566       1.84525711       1.26805072
Si       3.34818774       2.97668620      -0.38180054
Si      -0.85108122       1.97190197       7.51120925
14
Lattice="8.142484354342828 -2.8034421598928474 -0.2700325013072517 -1.8831896523759057 6.924675775723356 -0.6661255833668404 -3.7731571026632906 0.8316691818836404 8.067733549858815" Properties=species:S:1:pos:R:3 unique_starting_index=20 config_type=initial n_minim_iter=18 stress="0.0009509367166239228 0.0005385488119419113 -0.00024228664142105085 0.0005385488119419113 -0.0005085054443923339 -0.000163144274439423 -0.00024228664142105085 -0.000163144274439423 -0.0008149713425773808" pbc="T T T"
Si       2.03786248       1.95382841       7.17625857
Si       5.91367721       1.68149617       1.00028603
Si       0.44827512       2.99907438      -0.04468311
Si      -3.42753961       3.27140663       6.13128943
Si       4.04608011       1.68617627       4.42142253
Si       4.76922292       1.29554059       2.59701160
Si      -1.55994251       3.26672653       2.71015293
Si      -2.28308532       3.65736221       4.53456386
Si       0.21663889       3.59899330       1.85055935
Si      -0.88422815       3.10740879       5.86169987
Si       2.26949871       1.35390950       5.28101611
Si       3.37036575       1.84549401       1.26987560
Si       3.34541490       2.97187222      -0.38355598
Si      -0.85927730       1.98103058       7.51513144
14
Lattice="8.137459650327 -2.8050405366263877 -0.2739093140872361 -1.8835143057211718 6.924776445439708 -0.6791627295933678 -3.7799950929603066 0.8153163516881984 8.074724668103917" Properties=species:S:1:pos:R:3 unique_starting_index=20 config_type=initial n_minim_iter=19 stress="-0.00040286508672833006 -4.7884164375865916e-05 -0.0002748175441586997 -4.7884164375865916e-05 0.0001770111828176445 0.0002489468082888697 -0.0002748175441586997 0.0002489468082888697 0.0007244185002748542" pbc="T T T"
Si       2.02724462       1.93486910       7.17393049
Si       5.90659641       1.67827129       0.99113758
Si       0.44670563       3.00018316      -0.05227787
Si      -3.43264615       3.25678097       6.13051504
Si       4.03343133       1.66706556       4.41555951
Si       4.76456781       1.29561304       2.59012456
Si      -1.55948108       3.26798670       2.70609311
Si      -2.29061755       3.63943922       4.53152807
Si       0.21641852       3.59629457       1.84441235
Si      -0.89421213       3.09205444       5.86223598
Si       2.25753174       1.33875769       5.27724027
Si       3.36816238       1.84299782       1.25941665
Si       3.34627108       2.97336171      -0.39131736
Si      -0.87232083       1.96169055       7.51296998
14
Lattice="8.112569468389912 -2.8505942287491473 -0.27298758538505946 -1.9050888733431801 6.9593094034151 -0.6935308633597844 -3.7715148330496864 0.8168366216958864 8.075126926458093" Properties=species:S:1:pos:R:3 unique_starting_index=20 config_type=initial n_minim_iter=20 stress="0.002937696218773921 -0.0019505609346917553 0.002479897724627517 -0.0019505609346917553 0.0018135534395310937 -0.0017578624948389242 0.002479897724627517 -0.0017578624948389242 0.001196399851442265" pbc="T T T"
Si       2.00260379       1.90771252       7.17818009
Si       5.88433117       1.67022727       0.99138373
Si       0.43336198       3.01783927      -0.06957162
Si      -3.44836541       3.25532453       6.11722475
Si       4.00121167       1.63512863       4.41104317
Si       4.73764504       1.28075004       2.58486138
Si      -1.56524591       3.29042317       2.69756531
Si      -2.30167928       3.64480176       4.52374710
Si       0.20910557       3.61060211       1.82877809
Si      -0.90918811       3.08508761       5.85393988
Si       2.22686019       1.31494969       5.27983038
Si       3.34515387       1.84046419       1.25466860
Si       3.32406268       2.96498978      -0.39993017
Si      -0.88809692       1.96056202       7.50853865
14
Lattice="8.1050158126942 -2.867015427509742 -0.2742806188079344 -1.9134096282449304 6.971740930200072 -0.7084330405218275 -3.774977491228416 0.8045311002133253 8.075929248606615" Properties=species:S:1:pos:R:3 unique_starting_index=20 config_type=initial n_minim_iter=21 stress="0.0011838049256064772 8.037719489574867e-06 0.0002794420294933289 8.037719489574867e-06 -0.00046678857665260353 2.997554615557872e-05 0.0002794420294933289 2.997554615557872e-05 0.000893916198687752" pbc="T T T"
Si       1.98739429       1.88392937       7.17371344
Si       5.87679536       1.66531006       0.98373630
Si       0.42923440       3.02532723      -0.08049786
Si      -3.46016667       3.24394654       6.10947929
Si       3.98256731       1.60720906       4.40252027
Si       4.72887669       1.27399700       2.57602186
Si      -1.56593862       3.30204754       2.69069532
Si      -2.31224799       3.63525960       4.51719373
Si       0.20781465       3.61661391       1.81854406
Si      -0.92027148       3.07225301       5.84620312
Si       2.20881405       1.29264269       5.27467152
Si       3.33690017       1.83700359       1.24701247
Si       3.31700441       2.96171810      -0.40746085
Si      -0.90037572       1.94753851       7.50067644
