20
Lattice="9.727141317959287 -5.329070518200756e-15 1.2975286252711997e-14 4.86357065897965 8.423951487553989 -2.3298989856400088e-14 4.863570658979636 2.8079838291846877 7.455433127563593" Properties=species:S:1:pos:R:3 unique_starting_index=8 config_type=initial n_minim_iter=1 energy=-3250.4200295207756 free_energy=-3250.4200295207756 pbc="T T T"
Si      12.02307558       4.75983964       2.82096830
Si       9.32060281       8.03236906       2.82096830
Si       7.83774558       4.05569428       2.82096830
Si       7.03284414       4.99345802       5.01493495
Si      11.61339907       3.59389267       5.01493495
Si      10.53518075       8.26055228       5.01493495
Si       9.13917773       2.78373507       6.56415239
Si      12.47390848       6.52289255       6.56415239
Si       7.56833775       7.54127536       6.56415239
Si       5.88051035       6.83755292       0.13234379
Si      10.59253294       1.67389489       0.13234379
Si      12.70838068       8.33645517       0.13234379
Si      14.08225438       7.38406491       5.70960807
Si      15.74550898       8.50355758       5.70960807
Si      13.94437258       9.38423198       5.70960807
Si      10.04956714       1.11200588       2.42931886
Si      13.46647373       8.14717750       2.42931886
Si       5.66538309       7.58871960       2.42931886
Si      14.59071198       8.42395149       0.79957164
Si      14.59071198       8.42395149       4.06835392
20
Lattice="9.717316844619456 -4.041905900172641e-15 1.2910816299211772e-14 4.858658422309731 8.41544324406289 -2.3279909096934995e-14 4.85865842230972 2.80514774802099 7.430020966768701" Properties=species:S:1:pos:R:3 unique_starting_index=8 config_type=initial n_minim_iter=2 stress="-0.02574242093166213 -3.0112544210599784e-15 -2.4995159126966267e-15 -3.0112544210599784e-15 -0.02574242093166603 -4.942424007478431e-15 -2.4995159126966267e-15 -4.942424007478431e-15 -0.03770355162246637" pbc="T T T"
Si      12.00954507       4.75110115       2.81214235
Si       9.31528687       8.02502054       2.81214235
Si       7.82711860       4.05476479       2.81214235
Si       7.02586482       4.99215674       4.99836743
Si      11.59836673       3.58849905       4.99836743
Si      10.52771900       8.25023071       4.99836743
Si       9.13380841       2.77924655       6.54024537
Si      12.46083138       6.52048684       6.54024537
Si       7.55731076       7.53115311       6.54024537
Si       5.87733103       6.82976195       0.13016438
Si      10.58122083       1.67503700       0.13016438
Si      12.69339869       8.32608754       0.13016438
Si      14.06852457       7.37660233       5.68969688
Si      15.72936324       8.49539850       5.68969688
Si      13.93003800       9.37432890       5.68969688
Si      10.04005334       1.10939615       2.42414831
Si      13.45384178       8.14024317       2.42414831
Si       5.65805543       7.58124717       2.42414831
Si      14.57597527       8.41544324       0.79174582
Si      14.57597527       8.41544324       4.05744356
20
Lattice="9.729888311022801 -3.686606757058295e-15 1.2979543842285919e-14 4.864944155511404 8.426330453331007 -2.3321841757992922e-14 4.864944155511393 2.808776817777029 7.4313035164614005" Properties=species:S:1:pos:R:3 unique_starting_index=8 config_type=initial n_minim_iter=3 stress="0.0032176477504120564 -2.6066104055026056e-14 3.3413064064960615e-16 -2.6066104055026056e-14 0.003217647750395123 1.1239093005902723e-14 3.3413064064960615e-16 1.1239093005902723e-14 0.006234228533968581" pbc="T T T"
Si      12.02375140       4.75348345       2.81337130
Si       9.33126351       8.03613243       2.81337130
Si       7.83465004       4.06304503       2.81337130
Si       7.03508131       5.00219840       4.99974204
Si      11.61020508       3.59145993       4.99974204
Si      10.54437855       8.25900258       4.99974204
Si       9.14932893       2.78132231       6.53994771
Si      12.47641638       6.53289012       6.53994771
Si       7.56391963       7.53844847       6.53994771
Si       5.88761822       6.83769023       0.12851022
Si      10.59435408       1.67998182       0.12851022
Si      12.70769265       8.33498885       0.12851022
Si      14.08708331       7.38579132       5.69057593
Si      15.74984037       8.50687635       5.69057593
Si      13.94757372       9.38632369       5.69057593
Si      10.05378484       1.10987291       2.42707504
Si      13.47170607       8.15189662       2.42707504
Si       5.66417403       7.59089138       2.42707504
Si      14.59483247       8.42633045       0.78742366
Si      14.59483247       8.42633045       4.06093095
20
Lattice="9.747896568236337 -6.305010302854634e-15 1.2943700788745246e-14 4.873948284118174 8.441926061555817 -2.3370338377463722e-14 4.873948284118162 2.813975353851965 7.413958087115044" Properties=species:S:1:pos:R:3 unique_starting_index=8 config_type=initial n_minim_iter=4 stress="0.02115737798956913 -6.08509582831442e-15 -5.623230874037993e-16 -6.08509582831442e-15 0.021157377989570098 2.4042182037303384e-15 -5.623230874037993e-16 2.4042182037303384e-15 -0.019581624623340472" pbc="T T T"
Si      12.04212632       4.75130320       2.80888832
Si       9.35998071       8.05313570       2.80888832
Si       7.84158269       4.07941322       2.80888832
Si       7.04847172       5.02191388       4.98962663
Si      11.62245229       3.59319862       4.98962663
Si      10.57276571       8.26873962       4.98962663
Si       9.17710241       2.78249492       6.52074773
Si      12.49753066       6.55635636       6.52074773
Si       7.56905665       7.54500085       6.52074773
Si       5.90529661       6.84931780       0.12401779
Si      10.61146162       1.68947798       0.12401779
Si      12.72693148       8.34505634       0.12401779
Si      14.11371554       7.39683377       5.67968578
Si      15.78098599       8.52441932       5.67968578
Si      13.97083304       9.40452510       5.67968578
Si      10.07416244       1.10787847       2.42135312
Si      13.49926102       8.17054136       2.42135312
Si       5.67026625       7.60543230       2.42135312
Si      14.62184486       8.44192606       0.78701311
Si      14.62184486       8.44192606       4.05648680
20
Lattice="9.672087742458498 -1.190888247891219e-14 1.2880706728642331e-14 4.836043871229259 8.376273692601135 -2.312746234645584e-14 4.8360438712292435 2.792091230867069 7.483697378656803" Properties=species:S:1:pos:R:3 unique_starting_index=8 config_type=initial n_minim_iter=5 stress="0.009028377802027967 -6.5834269396345416e-15 5.172667734762042e-15 -6.5834269396345416e-15 0.009028377802017982 -2.0536527672963903e-15 5.172667734762042e-15 -2.0536527672963903e-15 0.05301187503539926" pbc="T T T"
Si      11.93573314       4.67819442       2.84215885
Si       9.32487370       7.99755090       2.84215885
Si       7.75565639       4.07680206       2.84215885
Si       6.99477692       5.01736967       5.04190244
Si      11.50161744       3.54896967       5.04190244
Si      10.51986888       8.18620805       5.04190244
Si       9.14152070       2.74888234       6.56940406
Si      12.39281320       6.54234798       6.56940406
Si       7.48192934       7.46131706       6.56940406
Si       5.87717425       6.79965594       0.11409079
Si      10.51691359       1.68995423       0.11409079
Si      12.62217540       8.26293722       0.11409079
Si      14.00686278       7.33131703       5.74353465
Si      15.66372506       8.46464048       5.74353465
Si      13.85380702       9.33286357       5.74353465
Si      10.00258321       1.08934354       2.44211302
Si      13.39948470       8.11781940       2.44211302
Si       5.61419532       7.54538445       2.44211302
Si      14.50813162       8.37627369       0.79134468
Si      14.50813162       8.37627369       4.10725067
20
Lattice="9.820180696055077 -6.46911060727463e-14 1.2934946216233072e-14 4.910090348027592 8.50452595253722 -2.3838044031756203e-14 4.910090348027546 2.834841984179078 7.1820748686320615" Properties=species:S:1:pos:R:3 unique_starting_index=8 config_type=initial n_minim_iter=6 stress="0.034042375677702894 3.8459670369916965e-15 1.4545765326075015e-14 3.8459670369916965e-15 0.03404237567770845 6.658311176364163e-15 1.4545765326075015e-14 6.658311176364163e-15 -0.005140581776120832" pbc="T T T"
Si      11.98643274       4.37441648       2.79307198
Si       9.85878923       8.19334701       2.79307198
Si       7.61532013       4.44128842       2.79307198
Si       7.11477604       5.45171396       4.89321043
Si      11.36165059       3.43571981       4.89321043
Si      10.98411547       8.12161814       4.89321043
Si       9.65739994       2.73624709       6.20947013
Si      12.44200194       6.99543013       6.20947013
Si       7.36114022       7.27737468       6.20947013
Si       6.09288301       7.02688383       0.03946079
Si      10.50845999       1.76314955       0.03946079
Si      12.85919910       8.21901853       0.03946079
Si      14.31104029       7.38692466       5.59198673
Si      15.90775754       8.70026211       5.59198673
Si      13.97201532       9.42639109       5.59198673
Si      10.24625887       1.07762609       2.32399754
Si      13.58398039       8.33470743       2.32399754
Si       5.63030283       7.59671839       2.32399754
Si      14.73027105       8.50452595       0.69707635
Si      14.73027105       8.50452595       3.95897348
20
Lattice="9.836033913268736 -6.915230130801172e-14 1.2730807252692589e-14 4.918016956634426 8.518255241375961 -2.4027602868615928e-14 4.918016956634377 2.8394184137919902 7.1673370716720335" Properties=species:S:1:pos:R:3 unique_starting_index=8 config_type=initial n_minim_iter=7 stress="0.059106101482640346 2.8767882641014964e-15 1.090665836219787e-14 2.8767882641014964e-15 0.05910610148263637 6.7819142209308155e-15 1.090665836219787e-14 6.7819142209308155e-15 0.010584410355126292" pbc="T T T"
Si      11.99279787       4.34373700       2.79357492
Si       9.91388230       8.21419912       2.79357492
Si       7.60142157       4.47857437       2.79357492
Si       7.12820476       5.49475004       4.88834415
Si      11.34937234       3.42583138       4.88834415
Si      11.03052466       8.11592907       4.88834415
Si       9.70956596       2.73353271       6.18638207
Si      12.44997608       7.04196443       6.18638207
Si       7.34855970       7.26101335       6.18638207
Si       6.11329794       7.05028286       0.03399246
Si      10.50969481       1.76912989       0.03399246
Si      12.88510900       8.21709774       0.03399246
Si      14.34319801       7.39933778       5.58590943
Si      15.92848826       8.72190496       5.58590943
Si      13.99046636       9.43352299       5.58590943
Si      10.27035040       1.07581232       2.31602644
Si      13.60521184       8.35647819       2.31602644
Si       5.63253951       7.60421998       2.31602644
Si      14.75405087       8.51825524       0.69171619
Si      14.75405087       8.51825524       3.96116612
20
Lattice="9.929266337441069 -8.93129588290323e-14 1.2856707344815869e-14 4.964633168720609 8.598996889165589 -2.4102022327922118e-14 4.96463316872055 2.8663322963885243 7.116861737789448" Properties=species:S:1:pos:R:3 unique_starting_index=8 config_type=initial n_minim_iter=8 stress="0.052185628266240444 1.6227123489754218e-15 1.3457748546072628e-14 1.6227123489754218e-15 0.05218562826623246 8.429313363511459e-15 1.3457748546072628e-14 8.429313363511459e-15 -0.047664144984913746" pbc="T T T"
Si      12.05489693       4.23201163       2.79750298
Si      10.16605464       8.32384116       2.79750298
Si       7.56684746       4.64214099       2.79750298
Si       7.20722628       5.67469466       4.87109173
Si      11.34048981       3.40429372       4.87109173
Si      11.24008293       8.11900540       4.87109173
Si       9.93088158       2.70281306       6.09621215
Si      12.55238712       7.24898920       6.09621215
Si       7.30453032       7.24619152       6.09621215
Si       6.20324394       7.16426343       0.02012464
Si      10.55247658       1.79003512       0.02012464
Si      13.03207850       8.24369523       0.02012464
Si      14.48480594       7.48170039       5.57103609
Si      16.06605345       8.80335972       5.57103609
Si      14.13083914       9.51193056       5.57103609
Si      10.38831551       1.06910031       2.30093140
Si      13.73850690       8.46199497       2.30093140
Si       5.66097662       7.66689850       2.30093140
Si      14.89389951       8.59899689       0.67710396
Si      14.89389951       8.59899689       3.92433925
20
Lattice="10.026980182985334 -1.0023611535088717e-13 1.2990664706516701e-14 5.01349009149275 8.68361956170839 -2.4124699450982366e-14 5.013490091492686 2.8945398539027867 7.142206256638125" Properties=species:S:1:pos:R:3 unique_starting_index=8 config_type=initial n_minim_iter=9 stress="-0.006061156647178034 6.023026391612321e-15 2.0153931939730952e-15 6.023026391612321e-15 -0.006061156647173481 -3.614035048962863e-15 2.0153931939730952e-15 -3.614035048962863e-15 -0.021647423932271724" pbc="T T T"
Si      12.14866100       4.19606381       2.81926596
Si      10.34573201       8.42301714       2.81926596
Si       7.58654754       4.74815817       2.81926596
Si       7.28871322       5.77518702       4.88509758
Si      11.40814509       3.42461730       4.88509758
Si      11.38408225       8.16743481       4.88509758
Si      10.06732726       2.67814691       6.10096993
Si      12.70095348       7.37948770       6.10096993
Si       7.31265982       7.30960452       6.10096993
Si       6.25883851       7.26707780       0.02764112
Si      10.63106713       1.78677424       0.02764112
Si      13.19103492       8.31338708       0.02764112
Si      14.61474412       7.59150678       5.58644955
Si      16.19913077       8.86098628       5.58644955
Si      14.30753595       9.59836562       5.58644955
Si      10.49043467       1.06756168       2.30581337
Si      13.88420750       8.55120208       2.30581337
Si       5.70629839       7.74847536       2.30581337
Si      15.04047028       8.68361956       0.68690677
Si      15.04047028       8.68361956       3.95728069
20
Lattice="10.099858291411197 -1.0561238168129644e-13 1.3081221454231687e-14 5.049929145705687 8.74673385498494 -2.4517222840417024e-14 5.049929145705621 2.915577951661636 7.214378364273269" Properties=species:S:1:pos:R:3 unique_starting_index=8 config_type=initial n_minim_iter=10 stress="-0.04958340927994797 1.2600085408346481e-14 2.3273832469365646e-14 1.2600085408346481e-14 -0.049583409279964734 1.5852078159029718e-14 2.3273832469365646e-14 1.5852078159029718e-14 -0.0005618171623804685" pbc="T T T"
Si      12.22483800       4.18736511       2.85376958
Si      10.46093303       8.49333770       2.85376958
Si       7.61380386       4.81276490       2.85376958
Si       7.34813451       5.83281047       4.92830221
Si      11.47428729       3.44726592       4.92830221
Si      11.47715309       8.21339132       4.92830221
Si      10.15806416       2.67401159       6.15786906
Si      12.80492254       7.46013582       6.15786906
Si       7.33658818       7.35932030       6.15786906
Si       6.29893955       7.33566843       0.03440849
Si      10.69737160       1.78720745       0.03440849
Si      13.30326373       8.37059184       0.03440849
Si      14.72335685       7.67444109       5.63931731
Si      16.29163551       8.91358051       5.63931731
Si      14.43436996       9.65217997       5.63931731
Si      10.55851535       1.05447250       2.33040064
Si      14.00725894       8.61670626       2.33040064
Si       5.73380060       7.82228895       2.33040064
Si      15.14978744       8.74673386       0.70065007
Si      15.14978744       8.74673386       3.99257926
20
Lattice="10.217628966413038 -1.0951488202418953e-13 1.3466190359173641e-14 5.108814483206613 8.848726251357373 -2.461211861762012e-14 5.108814483206542 2.9495754171191115 7.203705245222527" Properties=species:S:1:pos:R:3 unique_starting_index=8 config_type=initial n_minim_iter=11 stress="0.011111901725308007 4.843764371216461e-16 9.207302555500041e-15 4.843764371216461e-16 0.01111190172533606 4.032496485657981e-16 9.207302555500041e-15 4.032496485657981e-16 0.01194361476557234" pbc="T T T"
Si      12.36152811       4.21432893       2.85294495
Si      10.60477797       8.59823291       2.85294495
Si       7.68658083       4.88489067       2.85294495
Si       7.43898346       5.89351687       4.90663025
Si      11.61183088       3.49559021       4.90663025
Si      11.60207257       8.30834542       4.90663025
Si      10.28163507       2.68361214       6.14973169
Si      12.97036412       7.56235109       6.14973169
Si       7.40088772       7.45148928       6.14973169
Si       6.35704925       7.43848525       0.04823482
Si      10.81481612       1.78612351       0.04823482
Si      13.48102154       8.47284374       0.04823482
Si      14.89622673       7.76728184       5.62810416
Si      16.47811015       9.01686984       5.62810416
Si      14.60499348       9.76202707       5.62810416
Si      10.67344082       1.05106212       2.32753380
Si      14.18829103       8.71793984       2.32753380
Si       5.79115506       7.92845055       2.32753380
Si      15.32644345       8.84872625       0.69440192
Si      15.32644345       8.84872625       3.98715327
20
Lattice="10.253816594149976 -1.1046882562847618e-13 1.3802659180098435e-14 5.126908297075085 8.880065656280257 -2.4943867049495872e-14 5.126908297075012 2.9600218854267384 7.196435077187653" Properties=species:S:1:pos:R:3 unique_starting_index=8 config_type=initial n_minim_iter=12 stress="0.027859015863625124 6.624063141422584e-16 3.9458650218651e-15 6.624063141422584e-16 0.027859015863645056 -2.1654633002051343e-15 3.9458650218651e-15 -2.1654633002051343e-15 0.03410610775961087" pbc="T T T"
Si      12.40264389       4.21945378       2.85167143
Si      10.65215709       8.63127779       2.85167143
Si       7.70664881       4.90939975       2.85167143
Si       7.46737969       5.90841364       4.89258902
Si      11.65710704       3.51273369       4.89258902
Si      11.63696306       8.33898398       4.89258902
Si      10.31885209       2.68008351       6.14507402
Si      13.02718674       7.59634629       6.14507402
Si       7.41541096       7.48370151       6.14507402
Si       6.37517975       7.46825543       0.05448069
Si      10.85234439       1.78693990       0.05448069
Si      13.53392565       8.50493599       0.05448069
Si      14.95224490       7.80171001       5.62263417
Si      16.52884828       9.04816892       5.62263417
Si      14.66108151       9.79031804       5.62263417
Si      10.70980796       1.05528761       2.32546088
Si      14.23882333       8.74732196       2.32546088
Si       5.81281850       7.95752174       2.32546088
Si      15.38072489       8.88006566       0.69492269
Si      15.38072489       8.88006566       3.97937012
20
Lattice="10.384810077535278 -1.2072893663874027e-13 1.43516834565337e-14 5.192405038767744 8.993509340622136 -2.5245880261092478e-14 5.192405038767663 2.9978364468740284 7.16735011770518" Properties=species:S:1:pos:R:3 unique_starting_index=8 config_type=initial n_minim_iter=13 stress="0.03730326432681707 1.2413316622643153e-14 -3.1826344249848474e-15 1.2413316622643153e-14 0.03730326432683843 -3.4071862617168484e-15 -3.1826344249848474e-15 -3.4071862617168484e-15 0.02282786258517136" pbc="T T T"
Si      12.53589439       4.19318926       2.85388977
Si      10.87026455       8.75980837       2.85388977
Si       7.74827130       5.03402106       2.85388977
Si       7.57270912       6.01080382       4.84912275
Si      11.77775680       3.55275656       4.84912275
Si      11.80396433       8.42345830       4.84912275
Si      10.49769588       2.65853527       6.11152833
Si      13.21841314       7.76200368       6.11152833
Si       7.43832122       7.56647974       6.11152833
Si       6.45240924       7.58810586       0.07099404
Si      10.97192310       1.79389739       0.07099404
Si      13.73009790       8.60501544       0.07099404
Si      15.15599771       7.92030588       5.60563393
Si      16.71724529       9.16532610       5.60563393
Si      14.85840236       9.89489605       5.60563393
Si      10.84681550       1.06223509       2.31568346
Si      14.42628984       8.86250023       2.31568346
Si       5.88132491       8.06228337       2.31568346
Si      15.57721512       8.99350934       0.69079000
Si      15.57721512       8.99350934       3.95435138
20
Lattice="10.450743376783727 -1.292647123441128e-13 1.4628548949657228e-14 5.225371688391978 9.050609252726606 -2.4828217118726598e-14 5.225371688391891 3.0168697509088496 7.1571414116238765" Properties=species:S:1:pos:R:3 unique_starting_index=8 config_type=initial n_minim_iter=14 stress="0.025722611789723685 4.029684135769562e-14 -1.0205846136306061e-14 4.029684135769562e-14 0.025722611789735925 -9.423529335033511e-15 -1.0205846136306061e-14 -9.423529335033511e-15 0.003452858219220489" pbc="T T T"
Si      12.59059013       4.13864008       2.86177927
Si      11.02202425       8.83445086       2.86177927
Si       7.73961576       5.12812757       2.86177927
Si       7.62444552       6.07772752       4.81498546
Si      11.82579757       3.56409974       4.81498546
Si      11.90198706       8.45939124       4.81498546
Si      10.61304805       2.61872079       6.10173676
Si      13.32708401       7.88180882       6.10173676
Si       7.41209809       7.60068890       6.10173676
Si       6.49626257       7.65125863       0.09097071
Si      11.02717113       1.80029910       0.09097071
Si      13.82879644       8.64966078       0.09097071
Si      15.26979725       7.96643878       5.59871911
Si      16.81819314       9.24081294       5.59871911
Si      14.94035481       9.94457604       5.59871911
Si      10.90818971       1.05936200       2.31105293
Si      14.52995750       8.91708840       2.31105293
Si       5.91408293       8.12476811       2.31105293
Si      15.67611507       9.05060925       0.68246073
Si      15.67611507       9.05060925       3.94570778
20
Lattice="10.492347802679046 -1.519871053399825e-13 1.508450812662515e-14 5.246173901339656 9.086639742461802 -2.5578642670206483e-14 5.24617390133956 3.028879914153906 7.112018389113205" Properties=species:S:1:pos:R:3 unique_starting_index=8 config_type=initial n_minim_iter=15 stress="0.06640519960837828 1.4583114024147004e-14 -9.703380578487095e-16 1.4583114024147004e-14 0.06640519960838201 -8.991959625745421e-15 -9.703380578487095e-16 -8.991959625745421e-15 0.019727540196166085" pbc="T T T"
Si      12.60196452       4.00743240       2.85642299
Si      11.21317509       8.90990521       2.85642299
Si       7.66190381       5.25594188       2.85642299
Si       7.64077603       6.15806122       4.72761899
Si      11.83127014       3.53807553       4.72761899
Si      12.00499725       8.47714273       4.72761899
Si      10.76266466       2.49419050       6.06924940
Si      13.44333094       8.07364575       6.06924940
Si       7.27104782       7.60544323       6.06924940
Si       6.53194714       7.68248565       0.14543359
Si      11.06549430       1.81558933       0.14543359
Si      13.87960198       8.67520450       0.14543359
Si      15.39650944       7.97290001       5.56586772
Si      16.87405475       9.34731830       5.56586772
Si      14.94500093       9.93970092       5.56586772
Si      10.93564100       1.07342306       2.28589206
Si      14.58726347       8.93383138       2.28589206
Si       5.95413894       8.16602505       2.28589206
Si      15.73852171       9.08663974       0.66211443
Si      15.73852171       9.08663974       3.91122443
20
Lattice="10.514501584140993 -1.695921450871099e-13 1.4127429063594768e-14 5.257250792070645 9.105825479997725 -2.6938432105943447e-14 5.25725079207054 3.0352751599992045 7.009464570665858" Properties=species:S:1:pos:R:3 unique_starting_index=8 config_type=initial n_minim_iter=16 stress="0.08224885761521 9.269282288537243e-15 -5.130138770635494e-15 9.269282288537243e-15 0.08224885761519633 8.753278222143039e-15 -5.130138770635494e-15 8.753278222143039e-15 0.0165277985632865" pbc="T T T"
Si      12.59864219       3.91781955       2.83458280
Si      11.33675082       8.95183441       2.83458280
Si       7.60811175       5.34199700       2.83458280
Si       7.62765305       6.20888790       4.61512229
Si      11.83812200       3.50129736       4.61512229
Si      12.07772971       8.50146570       4.61512229
Si      10.86679706       2.39847098       5.98210267
Si      13.51846785       8.21168682       5.98210267
Si       7.15823986       7.60149317       5.98210267
Si       6.55797061       7.67540430       0.20126339
Si      11.10292276       1.84166700       0.20126339
Si      13.88261139       8.69457967       0.20126339
Si      15.48014149       7.97218576       5.49862254
Si      16.89931863       9.42010290       5.49862254
Si      14.93579703       9.92518778       5.49862254
Si      10.92762550       1.08468258       2.22362496
Si      14.62582775       8.92125999       2.22362496
Si       5.99005151       8.20570839       2.22362496
Si      15.77175238       9.10582548       0.60237588
Si      15.77175238       9.10582548       3.85392833
20
Lattice="10.44363210326541 -1.7742855211477506e-13 1.3145944483570167e-14 5.221816051632857 9.044450709206448 -2.904306496175699e-14 5.221816051632749 3.014816903068774 6.847364450351083" Properties=species:S:1:pos:R:3 unique_starting_index=8 config_type=initial n_minim_iter=17 stress="0.08087761315071199 1.36513192081496e-14 -8.393157840259024e-16 1.36513192081496e-14 0.08087761315067322 -2.6310868441474758e-15 -8.393157840259024e-16 -2.6310868441474758e-15 -0.03842991821272525" pbc="T T T"
Si      12.53098910       3.89861425       2.74640353
Si      11.24547069       8.90284776       2.74640353
Si       7.55443654       5.28743941       2.74640353
Si       7.51711558       6.18689115       4.51481148
Si      11.77070152       3.41656748       4.51481148
Si      12.04307922       8.48544279       4.51481148
Si      10.82279021       2.31612590       5.84725543
Si      13.47004524       8.21474831       5.84725543
Si       7.03806087       7.55802721       5.84725543
Si       6.52743272       7.53888168       0.29117301
Si      11.09468480       1.88348172       0.29117301
Si      13.70877880       8.66653803       0.29117301
Si      15.41701028       7.89756129       5.38266555
Si      16.78290247       9.40274191       5.38266555
Si      14.79643172       9.83304893       5.38266555
Si      10.79667470       1.10160323       2.11350566
Si      14.53491048       8.79939295       2.11350566
Si       5.99931114       8.18790524       2.11350566
Si      15.66544816       9.04445071       0.49459609
Si      15.66544816       9.04445071       3.75558167
20
Lattice="10.439990757750428 -1.84900601818835e-13 1.416434294351915e-14 5.219995378875368 9.041297211486512 -3.0678250536829976e-14 5.219995378875255 3.0137657371621236 6.850379599976276" Properties=species:S:1:pos:R:3 unique_starting_index=8 config_type=initial n_minim_iter=18 stress="0.05107722960432094 -2.8456371199887416e-14 8.027918087605925e-15 -2.8456371199887416e-14 0.051077229604227406 -2.715229175059594e-15 8.027918087605925e-15 -2.715229175059594e-15 -0.02584987982633211" pbc="T T T"
Si      12.55898008       3.93520361       2.71619368
Si      11.19250518       8.90879399       2.71619368
Si       7.56848702       5.23859682       2.71619368
Si       7.49182807       6.20611648       4.54748004
Si      11.75941296       3.38505518       4.54748004
Si      12.06873126       8.49142276       4.54748004
Si      10.84067196       2.21793845       5.84375866
Si      13.53885450       8.27932808       5.84375866
Si       6.94044583       7.58532789       5.84375866
Si       6.49700896       7.50053996       0.36052714
Si      11.13581890       1.87630483       0.36052714
Si      13.68714443       8.70574964       0.36052714
Si      15.45595201       7.88965949       5.37222791
Si      16.75935073       9.44041733       5.37222791
Si      14.76465569       9.79381482       5.37222791
Si      10.75256646       1.10524138       2.08435520
Si      14.54653118       8.75937502       2.08435520
Si       6.02087465       8.21797803       2.08435520
Si      15.65998614       9.04129721       0.45986074
Si      15.65998614       9.04129721       3.73360826
20
Lattice="10.431000600851494 -1.802220058386384e-13 1.4450222155767006e-14 5.215500300425897 9.033511507228033 -3.084178321784337e-14 5.215500300425788 3.011170502409298 6.912886640963175" Properties=species:S:1:pos:R:3 unique_starting_index=8 config_type=initial n_minim_iter=19 stress="0.016828460407700682 -2.2795068744591548e-14 1.2692760177477324e-15 -2.2795068744591548e-14 0.016828460407736754 -9.299836747609777e-15 1.2692760177477324e-15 -9.299836747609777e-15 -0.02262871098365039" pbc="T T T"
Si      12.56025583       3.97280148       2.73776023
Si      11.14132629       8.89109989       2.73776023
Si       7.59141969       5.20312165       2.73776023
Si       7.49474277       6.18923784       4.60885320
Si      11.75459262       3.39601872       4.60885320
Si      12.04366642       8.48176646       4.60885320
Si      10.81468272       2.22017823       5.89048177
Si      13.53192910       8.25570085       5.89048177
Si       6.94638999       7.59114394       5.89048177
Si       6.47171482       7.50777543       0.34191216
Si      11.12421955       1.85078173       0.34191216
Si      13.69706744       8.70846586       0.34191216
Si      15.43902591       7.88867235       5.41131475
Si      16.74169820       9.42625247       5.41131475
Si      14.75877861       9.78560970       5.41131475
Si      10.74406572       1.10184027       2.11686494
Si      14.53574668       8.75371371       2.11686494
Si       6.01318941       8.21146903       2.11686494
Si      15.64650091       9.03351151       0.48879014
Si      15.64650091       9.03351151       3.76779426
20
Lattice="10.437428185385757 -1.747615198902836e-13 1.49286457614455e-14 5.218714092693025 9.039077958719677 -3.128349544514657e-14 5.21871409269292 3.013025986239849 6.986570052470796" Properties=species:S:1:pos:R:3 unique_starting_index=8 config_type=initial n_minim_iter=20 stress="-0.04342967559667017 -5.888541212974736e-15 -4.848938596576977e-15 -5.888541212974736e-15 -0.04342967559665158 6.879529612843961e-15 -4.848938596576977e-15 6.879529612843961e-15 -0.00646705540036577" pbc="T T T"
Si      12.58225899       4.01503182       2.76039918
Si      11.10660732       8.88904001       2.76039918
Si       7.62341825       5.17408409       2.76039918
Si       7.50808987       6.18604005       4.68455857
Si      11.76354361       3.40917653       4.68455857
Si      12.04065109       8.48293934       4.68455857
Si      10.81892609       2.19001614       5.94212418
Si      13.56878372       8.27445676       5.94212418
Si       6.92457476       7.61368301       5.94212418
Si       6.44727073       7.52937253       0.32917874
Si      11.13059313       1.81881397       0.32917874
Si      13.73442071       8.72996942       0.32917874
Si      15.46347404       7.89786488       5.45557891
Si      16.74079592       9.44282890       5.45557891
Si      14.76415689       9.77654010       5.45557891
Si      10.74282750       1.09901554       2.15252086
Si      14.55166725       8.75405375       2.15252086
Si       6.01778982       8.22508663       2.15252086
Si      15.65614228       9.03907796       0.51919036
Si      15.65614228       9.03907796       3.80617904
20
Lattice="10.457817236210097 -1.726302767189499e-13 1.5202606359208446e-14 5.228908618105194 9.056735394692604 -3.2351833170499506e-14 5.228908618105092 3.0189117982308247 7.002546122290761" Properties=species:S:1:pos:R:3 unique_starting_index=8 config_type=initial n_minim_iter=21 stress="-0.03951857009713156 -6.747897940462177e-15 9.662166709795431e-16 -6.747897940462177e-15 -0.039518570097109365 6.900716474144547e-15 9.662166709795431e-16 6.900716474144547e-15 0.05370449825774215" pbc="T T T"
Si      12.61287430       4.04141040       2.76173673
Si      11.10923325       8.90236435       2.76173673
Si       7.65134417       5.16969604       2.76173673
Si       7.53031699       6.18965655       4.70719841
Si      11.79007617       3.42661753       4.70719841
Si      12.05305856       8.49719670       4.70719841
Si      10.83945238       2.19112901       5.95535008
Si      13.59833490       8.29167662       5.95535008
Si       6.93566444       7.63066516       5.95535008
Si       6.45361298       7.55441155       0.31917868
Si      11.14651568       1.81178701       0.31917868
Si      13.77332306       8.74727223       0.31917868
Si      15.49399881       7.91687703       5.46407120
Si      16.77023568       9.45975806       5.46407120
Si      14.79594308       9.79357110       5.46407120
Si      10.76623756       1.09683382       2.16277398
Si      14.58262975       8.77541832       2.16277398
Si       6.02458441       8.24121866       2.16277398
Si      15.68672586       9.05673540       0.52779316
Si      15.68672586       9.05673540       3.81590727
