20
Lattice="10.225483582437215 1.1076473072080262e-11 1.4347939941441046e-14 5.112741791209015 8.855528548376876 -3.327884796311554e-14 5.112741791215401 2.9518428494626834 7.23997393113562" Properties=species:S:1:pos:R:3 unique_starting_index=8 config_type=initial n_minim_iter=1 energy=-3282.3649352771117 free_energy=-3282.3649352771117 pbc="T T T"
Si      12.67695378       4.15528575       2.62837154
Si      10.51390726       8.90092114       2.62837154
Si       7.48558971       4.65485021       2.62837154
Si       6.81704253       6.58689930       5.27548911
Si      11.33802378       2.61028235       5.27548911
Si      12.52138445       8.51387544       5.27548911
Si      10.16377929       1.74871682       6.64789385
Si      13.85464434       7.92773265       6.64789385
Si       6.65802713       8.03460763       6.64789385
Si       6.53622089       7.54527443       0.22788162
Si      10.64845739       1.88789612       0.22788162
Si      13.49177248       8.27788655       0.22788162
Si      15.37990008       7.69905159       5.36919319
Si      16.31892645       9.46985838       5.36919319
Si      14.31584960       9.39767567       5.36919319
Si      10.55215790       1.10271889       2.06494516
Si      14.21990565       8.58707735       2.06494516
Si       5.90438721       8.02126085       2.06494516
Si      15.33822538       8.85552855       0.42790948
Si      15.33822538       8.85552855       3.70641230
20
Lattice="10.225516812970882 1.1077224967585906e-11 1.4324860510235822e-14 5.112758406475849 8.855557326863211 -3.327480751711204e-14 5.112758406482233 2.9518524422914614 7.240110085047247" Properties=species:S:1:pos:R:3 unique_starting_index=8 config_type=initial n_minim_iter=2 stress="0.00015136117204699297 -6.049562597222781e-15 9.60567236050012e-15 -6.049562597222781e-15 0.00015136117205749486 -1.0144175331917482e-14 9.60567236050012e-15 -1.0144175331917482e-14 0.00010864799336040999" pbc="T T T"
Si      12.67699520       4.15529996       2.62842173
Si      10.51394071       8.90094991       2.62842173
Si       7.48561454       4.65486479       2.62842173
Si       6.81706310       6.58692024       5.27558727
Si      11.33806183       2.61028970       5.27558727
Si      12.52142553       8.51390472       5.27558727
Si      10.16381223       1.74872225       6.64801995
Si      13.85468962       7.92775847       6.64801995
Si       6.65804859       8.03463394       6.64801995
Si       6.53624187       7.54529872       0.22788469
Si      10.64849233       1.88790214       0.22788469
Si      13.49181625       8.27791380       0.22788469
Si      15.37995000       7.69907708       5.36929477
Si      16.31897911       9.46988887       5.36929477
Si      14.31589656       9.39770603       5.36929477
Si      10.55219366       1.10272408       2.06498646
Si      14.21994974       8.58710573       2.06498646
Si       5.90440705       8.02128485       2.06498646
Si      15.33827522       8.85555733       0.42790913
Si      15.33827522       8.85555733       3.70648244
20
Lattice="10.225375491181644 1.1078275572541148e-11 1.4323466062901386e-14 5.11268774558123 8.855434938603631 -3.3277380203739386e-14 5.112687745587615 2.951811646204934 7.240145086920562" Properties=species:S:1:pos:R:3 unique_starting_index=8 config_type=initial n_minim_iter=3 stress="-0.00012378544523289852 -1.2458667732290385e-14 7.919783462072944e-15 -1.2458667732290385e-14 -0.00012378544522608135 -9.859457862896262e-15 7.919783462072944e-15 -9.859457862896262e-15 0.00014180713477500876" pbc="T T T"
Si      12.67682099       4.15524575       2.62843791
Si      10.51379211       8.90082614       2.62843791
Si       7.48551338       4.65479799       2.62843791
Si       6.81696078       6.58682949       5.27560978
Si      11.33790893       2.61024647       5.27560978
Si      12.52125677       8.51379393       5.27560978
Si      10.16367297       1.74869541       6.64805231
Si      13.85449985       7.92765128       6.64805231
Si       6.65795366       8.03452319       6.64805231
Si       6.53614896       7.54519443       0.22788446
Si      10.64834646       1.88787383       0.22788446
Si      13.49163106       8.27780162       0.22788446
Si      15.37973772       7.69897413       5.36932580
Si      16.31875044       9.46975650       5.36932580
Si      14.31570156       9.39757418       5.36932580
Si      10.55205337       1.10271340       2.06500102
Si      14.21974649       8.58698958       2.06500102
Si       5.90432663       8.02116690       2.06500102
Si      15.33806324       8.85543494       0.42788662
Si      15.33806324       8.85543494       3.70649787
20
Lattice="10.225527455700684 1.107702671680051e-11 1.4321469672588945e-14 5.112763727840751 8.85556654373759 -3.3279614969828094e-14 5.112763727847135 2.951855514582919 7.239963544812414" Properties=species:S:1:pos:R:3 unique_starting_index=8 config_type=initial n_minim_iter=4 stress="2.7157803119809193e-05 -9.506168485898594e-15 7.058489200857795e-15 -9.506168485898594e-15 2.715780312882646e-05 -3.653747340763764e-15 7.058489200857795e-15 -3.653747340763764e-15 1.3426845558265282e-06" pbc="T T T"
Si      12.67701353       4.15532083       2.62838639
Si      10.51393475       8.90095534       2.62838639
Si       7.48563410       4.65485691       2.62838639
Si       6.81703869       6.58692064       5.27546342
Si      11.33809496       2.61026836       5.27546342
Si      12.52144872       8.51394409       5.27546342
Si      10.16382775       1.74871534       6.64789358
Si      13.85470913       7.92777536       6.64789358
Si       6.65804549       8.03464239       6.64789358
Si       6.53623433       7.54530711       0.22787740
Si      10.64851012       1.88789141       0.22787740
Si      13.49183794       8.27793456       0.22787740
Si      15.37995777       7.69909564       5.36920632
Si      16.31899107       9.46988632       5.36920632
Si      14.31592471       9.39771767       5.36920632
Si      10.55223147       1.10274403       2.06495379
Si      14.21993484       8.58712850       2.06495379
Si       5.90441607       8.02126056       2.06495379
Si      15.33829119       8.85556654       0.42780508
Si      15.33829119       8.85556654       3.70639584
20
Lattice="10.22585885796229 1.1072163808768908e-11 1.4322967863753515e-14 5.112929428971559 8.855853546515009 -3.3279734756912495e-14 5.112929428977939 2.951951182175389 7.23952132748237" Properties=species:S:1:pos:R:3 unique_starting_index=8 config_type=initial n_minim_iter=5 stress="-2.4048976983573256e-05 -1.5555444136738008e-14 1.0403858634923467e-14 -1.5555444136738008e-14 -2.4048976939755124e-05 -1.8926567220191508e-14 1.0403858634923467e-14 -1.8926567220191508e-14 2.3707503132389292e-05" pbc="T T T"
Si      12.67746808       4.15559517       2.62837609
Si      10.51413270       8.90121183       2.62837609
Si       7.48597580       4.65490010       2.62837609
Si       6.81697785       6.58710585       5.27501616
Si      11.33862779       2.61012307       5.27501616
Si      12.52197094       8.51447818       5.27501616
Si      10.16422438       1.74879083       6.64762963
Si      13.85510825       7.92808111       6.64762963
Si       6.65824396       8.03483516       6.64762963
Si       6.53636517       7.54552780       0.22773045
Si      10.64891638       1.88789438       0.22773045
Si      13.49229504       8.27828491       0.22773045
Si      15.38042420       7.69938387       5.36896222
Si      16.31950246       9.47014614       5.36896222
Si      14.31643821       9.39803063       5.36896222
Si      10.55275411       1.10275881       2.06473703
Si      14.22032352       8.58757373       2.06473703
Si       5.90449895       8.02137455       2.06473703
Si      15.33878829       8.85585355       0.42765866
Si      15.33878829       8.85585355       3.70620726
20
Lattice="10.227203766894405 1.1063914999523644e-11 1.432644909567282e-14 5.113601883437627 8.857018271815997 -3.327815621912409e-14 5.113601883443999 2.952339423942381 7.23808002850528" Properties=species:S:1:pos:R:3 unique_starting_index=8 config_type=initial n_minim_iter=6 stress="8.041513648789307e-07 -6.070345190555888e-15 9.113048231311447e-15 -6.070345190555888e-15 8.041513913762072e-07 -1.7341170666988717e-14 9.113048231311447e-15 -1.7341170666988717e-14 -7.09388765071032e-05" pbc="T T T"
Si      12.67926922       4.15656985       2.62831351
Si      10.51507785       8.90228432       2.62831351
Si       7.48726424       4.65518238       2.62831351
Si       6.81713158       6.58792053       5.27369689
Si      11.34053521       2.60984886       5.27369689
Si      12.52394452       8.51626716       5.27369689
Si      10.16585625       1.74911333       6.64658012
Si      13.85670284       7.92933310       6.64658012
Si       6.65905222       8.03559012       6.64658012
Si       6.53702625       7.54641668       0.22713305
Si      10.65050586       1.88802245       0.22713305
Si      13.49407920       8.27959741       0.22713305
Si      15.38219174       7.70060323       5.36821008
Si      16.32159742       9.47106719       5.36821008
Si      14.31862781       9.39938440       5.36821008
Si      10.55466661       1.10270952       2.06422080
Si      14.22209978       8.58925465       2.06422080
Si       5.90484492       8.02207237       2.06422080
Si      15.34080565       8.85701827       0.42726786
Si      15.34080565       8.85701827       3.70539977
20
Lattice="10.228602034245451 1.1054260513653728e-11 1.4335084770949235e-14 5.114301017113158 8.858229206863284 -3.328240593906535e-14 5.1143010171195264 2.952743068958139 7.236928166850244" Properties=species:S:1:pos:R:3 unique_starting_index=8 config_type=initial n_minim_iter=7 stress="4.987739703610284e-05 -6.7140605095916785e-15 2.067132624856354e-14 -6.7140605095916785e-15 4.987739706240204e-05 -1.6147275427975653e-14 2.067132624856354e-14 -1.6147275427975653e-14 -0.00013022279811793254" pbc="T T T"
Si      12.68113323       4.15755895       2.62834698
Si      10.51608579       8.90340405       2.62834698
Si       7.48858709       4.65549542       2.62834698
Si       6.81736996       6.58885864       5.27271222
Si      11.34240013       2.60958626       5.27271222
Si      12.52603602       8.51801352       5.27271222
Si      10.16766064       1.74951142       6.64566841
Si      13.85825242       7.93069670       6.64566841
Si       6.65989305       8.03625030       6.64566841
Si       6.53770010       7.54738266       0.22660610
Si      10.65212891       1.88812304       0.22660610
Si      13.49597710       8.28095272       0.22660610
Si      15.38403772       7.70176783       5.36767781
Si      16.32386065       9.47208356       5.36767781
Si      14.32081080       9.40083623       5.36767781
Si      10.55663361       1.10272439       2.06369006
Si      14.22389994       8.59095069       2.06369006
Si       5.90527257       8.02278334       2.06369006
Si      15.34290306       8.85822921       0.42682559
Si      15.34290306       8.85822921       3.70494040
20
Lattice="10.22861778927297 1.1044272073930106e-11 1.4334974507718043e-14 5.114308894626925 8.858242851117343 -3.328535417618458e-14 5.114308894633289 2.9527476170428226 7.237041015920917" Properties=species:S:1:pos:R:3 unique_starting_index=8 config_type=initial n_minim_iter=8 stress="-2.9795820244555425e-05 -2.8080196238736884e-16 3.571539303387953e-14 -2.8080196238736884e-16 -2.979582023164988e-05 -2.0140812758016115e-14 3.571539303387953e-14 -2.0140812758016115e-14 -4.027563934854904e-05" pbc="T T T"
Si      12.68125397       4.15791125       2.62875579
Si      10.51575183       8.90333246       2.62875579
Si       7.48884758       4.65524200       2.62875579
Si       6.81697471       6.58876809       5.27266483
Si      11.34270769       2.60928922       5.27266483
Si      12.52617099       8.51842839       5.27266483
Si      10.16801331       1.74964463       6.64592485
Si      13.85799223       7.93093552       6.64592485
Si       6.65984784       8.03590555       6.64592485
Si       6.53744162       7.54747823       0.22638153
Si      10.65220689       1.88785141       0.22638153
Si      13.49620486       8.28115607       0.22638153
Si      15.38372170       7.70184750       5.36803441
Si      16.32399693       9.47177004       5.36803441
Si      14.32106143       9.40111101       5.36803441
Si      10.55701960       1.10250750       2.06343406
Si      14.22392628       8.59139341       2.06343406
Si       5.90490750       8.02258480       2.06343406
Si      15.34292669       8.85824285       0.42652544
Si      15.34292669       8.85824285       3.70486208
20
Lattice="10.228723755676624 1.1039032946248336e-11 1.43350113607051e-14 5.114361877828756 8.858334620714851 -3.328523238370157e-14 5.114361877835116 2.9527782069086577 7.236956496528618" Properties=species:S:1:pos:R:3 unique_starting_index=8 config_type=initial n_minim_iter=9 stress="-1.0497899020093098e-05 5.3564373646629896e-15 5.2111810497093834e-14 5.3564373646629896e-15 -1.0497899025510995e-05 -3.6498775707915896e-14 5.2111810497093834e-14 -3.6498775707915896e-14 -6.035685216814371e-05" pbc="T T T"
Si      12.68145067       4.15818558       2.62897121
Si      10.51562783       8.90336564       2.62897121
Si       7.48909278       4.65511802       2.62897121
Si       6.81677522       6.58876245       5.27251540
Si      11.34302425       2.60911928       5.27251540
Si      12.52637181       8.51878751       5.27251540
Si      10.16839174       1.74975386       6.64595985
Si      13.85792036       7.93120863       6.64595985
Si       6.65985918       8.03570675       6.64595985
Si       6.53733302       7.54762794       0.22622779
Si      10.65234348       1.88768249       0.22622779
Si      13.49649479       8.28135881       0.22622779
Si      15.38373726       7.70187225       5.36812305
Si      16.32428561       9.47177115       5.36812305
Si      14.32123404       9.40136046       5.36812305
Si      10.55735648       1.10232157       2.06327620
Si      14.22413079       8.59177812       2.06327620
Si       5.90468400       8.02256955       2.06327620
Si      15.34308564       8.85833462       0.42627814
Si      15.34308564       8.85833462       3.70464908
20
Lattice="10.228720325055534 1.1028502930290966e-11 1.433204488326808e-14 5.114360162518218 8.858331649709825 -3.328252638794055e-14 5.114360162524572 2.9527772165736446 7.236517092917573" Properties=species:S:1:pos:R:3 unique_starting_index=8 config_type=initial n_minim_iter=10 stress="-1.4248997488229129e-06 2.1939595432041743e-15 5.3923361532706864e-14 2.1939595432041743e-15 -1.4248997729882153e-06 -4.206985092370468e-14 5.3923361532706864e-14 -4.206985092370468e-14 -4.704313464843011e-05" pbc="T T T"
Si      12.68154465       4.15856600       2.62922140
Si      10.51524454       8.90325682       2.62922140
Si       7.48937180       4.65484048       2.62922140
Si       6.81646517       6.58848401       5.27199625
Si      11.34341355       2.60899000       5.27199625
Si      12.52628227       8.51918930       5.27199625
Si      10.16891309       1.74979519       6.64572029
Si      13.85761702       7.93163947       6.64572029
Si       6.65963087       8.03522864       6.64572029
Si       6.53708277       7.54777822       0.22595168
Si      10.65233159       1.88739063       0.22595168
Si      13.49674663       8.28149445       0.22595168
Si      15.38355090       7.70188717       5.36794659
Si      16.32435558       9.47160229       5.36794659
Si      14.32133499       9.40150549       5.36794659
Si      10.55768907       1.10191911       2.06298563
Si      14.22430617       8.59226738       2.06298563
Si       5.90416574       8.02247680       2.06298563
Si      15.34308049       8.85833165       0.42578404
Si      15.34308049       8.85833165       3.70460265
20
Lattice="10.228429099207249 1.1024983660282812e-11 1.4327562985795203e-14 5.114214549594078 8.85807944072697 -3.3284177640106234e-14 5.114214549600431 2.9526931469126927 7.236198484900722" Properties=species:S:1:pos:R:3 unique_starting_index=8 config_type=initial n_minim_iter=11 stress="-2.5290687545406466e-05 4.7178915047037145e-15 8.530353530478711e-14 4.7178915047037145e-15 -2.5290687574581157e-05 -2.9591025965892445e-14 8.530353530478711e-14 -2.9591025965892445e-14 -4.4675332705223955e-05" pbc="T T T"
Si      12.68122534       4.15863371       2.62930816
Si      10.51476310       8.90294644       2.62930816
Si       7.48929887       4.65457873       2.62930816
Si       6.81609598       6.58817769       5.27167984
Si      11.34328098       2.60882343       5.27167984
Si      12.52591036       8.51915777       5.27167984
Si      10.16878731       1.74976501       6.64550610
Si      13.85712360       7.93154563       6.64550610
Si       6.65937640       8.03484825       6.64550610
Si       6.53681952       7.54764104       0.22581634
Si      10.65199956       1.88723124       0.22581634
Si      13.49646823       8.28128660       0.22581634
Si      15.38291220       7.70158079       5.36770673
Si      16.32406660       9.47120235       5.36770673
Si      14.32095217       9.40145519       5.36770673
Si      10.55753697       1.10168030       2.06285433
Si      14.22400659       8.59225506       2.06285433
Si       5.90374375       8.02222352       2.06285433
Si      15.34264365       8.85807944       0.42551040
Si      15.34264365       8.85807944       3.70461271
20
Lattice="10.228405528868292 1.1029350612753916e-11 1.4326711403171286e-14 5.1142027644246 8.858059028214656 -3.328327432227937e-14 5.114202764430955 2.952686342741924 7.236164549659706" Properties=species:S:1:pos:R:3 unique_starting_index=8 config_type=initial n_minim_iter=12 stress="-2.4747002284955417e-05 6.504454816816289e-15 9.675302953972465e-14 6.504454816816289e-15 -2.4747002330896227e-05 -4.237796982385635e-14 9.675302953972465e-14 -4.237796982385635e-14 -4.578645615856434e-05" pbc="T T T"
Si      12.68119850       4.15866905       2.62934900
Si      10.51469877       8.90290553       2.62934900
Si       7.48931932       4.65454348       2.62934900
Si       6.81603003       6.58814058       5.27165629
Si      11.34329894       2.60878487       5.27165629
Si      12.52588762       8.51919261       5.27165629
Si      10.16881461       1.74977673       6.64548818
Si      13.85705266       7.93156341       6.64548818
Si       6.65934933       8.03477791       6.64548818
Si       6.53684010       7.54764456       0.22582582
Si      10.65193909       1.88724731       0.22582582
Si      13.49643741       8.28122619       0.22582582
Si      15.38284241       7.70158022       5.36763248
Si      16.32403127       9.47114219       5.36763248
Si      14.32095122       9.40145467       5.36763248
Si      10.55753728       1.10165195       2.06283409
Si      14.22398385       8.59226951       2.06283409
Si       5.90369547       8.02219660       2.06283409
Si      15.34260830       8.85805903       0.42546332
Si      15.34260830       8.85805903       3.70458499
20
Lattice="10.2286047645867 1.104929748436984e-11 1.432528718287242e-14 5.114302382283787 8.858231571408144 -3.328643418154617e-14 5.114302382290153 2.9527438571397613 7.23663877158281" Properties=species:S:1:pos:R:3 unique_starting_index=8 config_type=initial n_minim_iter=13 stress="4.517134823161335e-05 6.16631916246867e-15 9.387635771486549e-14 6.16631916246867e-15 4.5171348167818745e-05 -3.795139549250209e-14 9.387635771486549e-14 -3.795139549250209e-14 0.0001236116861598895" pbc="T T T"
Si      12.68144451       4.15935665       2.63025760
Si      10.51437876       8.90277478       2.63025760
Si       7.48999103       4.65433172       2.63025760
Si       6.81545077       6.58784528       5.27195576
Si      11.34424278       2.60843086       5.27195576
Si      12.52612075       8.52018700       5.27195576
Si      10.16961110       1.74952960       6.64575454
Si      13.85726691       7.93237676       6.64575454
Si       6.65893630       8.03455679       6.64575454
Si       6.53771224       7.54805783       0.22602552
Si      10.65154359       1.88779596       0.22602552
Si      13.49655848       8.28060935       0.22602552
Si      15.38275225       7.70172673       5.36767601
Si      16.32454718       9.47099086       5.36767601
Si      14.32142203       9.40197713       5.36767601
Si      10.55802994       1.10141163       2.06272922
Si      14.22434411       8.59281632       2.06272922
Si       5.90344026       8.02223519       2.06272922
Si      15.34290715       8.85823157       0.42524395
Si      15.34290715       8.85823157       3.70460183
20
Lattice="10.229008136613713 1.1063978379925521e-11 1.432812989134624e-14 5.11450406829728 8.858580901830722 -3.328812330921681e-14 5.114504068303656 2.95286030061396 7.236869746867573" Properties=species:S:1:pos:R:3 unique_starting_index=8 config_type=initial n_minim_iter=14 stress="2.4130093425442663e-05 4.242197336367526e-15 8.701278379350584e-14 4.242197336367526e-15 2.4130093366368494e-05 -4.1974542027908687e-14 8.701278379350584e-14 -4.1974542027908687e-14 6.140666614906512e-05" pbc="T T T"
Si      12.68188295       4.16001425       2.63093728
Si      10.51439678       8.90282568       2.63093728
Si       7.49074469       4.65432188       2.63093728
Si       6.81510430       6.58777852       5.27210997
Si      11.34528058       2.60816419       5.27210997
Si      12.52663955       8.52121910       5.27210997
Si      10.17044077       1.74936185       6.64579969
Si      13.85780409       7.93317915       6.64579969
Si       6.65877956       8.03462080       6.64579969
Si       6.53839317       7.54890507       0.22603642
Si      10.65127613       1.88796205       0.22603642
Si      13.49735511       8.28029469       0.22603642
Si      15.38307621       7.70206501       5.36757188
Si      16.32530235       9.47110227       5.36757188
Si      14.32215807       9.40257542       5.36757188
Si      10.55861971       1.10141983       2.06271122
Si      14.22484887       8.59332298       2.06271122
Si       5.90355584       8.02241899       2.06271122
Si      15.34351221       8.85858090       0.42527649
Si      15.34351221       8.85858090       3.70452380
20
Lattice="10.229319934837159 1.1078130309814443e-11 1.4328000420777417e-14 5.114659967408992 8.85885092701309 -3.328939659224985e-14 5.114659967415375 2.9529503090080875 7.236821484279059" Properties=species:S:1:pos:R:3 unique_starting_index=8 config_type=initial n_minim_iter=15 stress="-3.2310136811252957e-06 1.0072492025481655e-14 9.893657984724233e-14 1.0072492025481655e-14 -3.2310137423415336e-06 -4.4250539891051693e-14 9.893657984724233e-14 -4.4250539891051693e-14 -8.596650546217738e-06" pbc="T T T"
Si      12.68214240       4.16058554       2.63141906
Si      10.51439590       8.90276472       2.63141906
Si       7.49142151       4.65435160       2.63141906
Si       6.81480331       6.58770166       5.27204579
Si      11.34612124       2.60794195       5.27204579
Si      12.52703528       8.52205825       5.27204579
Si      10.17110621       1.74928315       6.64568059
Si      13.85816313       7.93379478       6.64568059
Si       6.65869048       8.03462393       6.64568059
Si       6.53897426       7.54978310       0.22589780
Si      10.65084879       1.88802627       0.22589780
Si      13.49813677       8.27989248       0.22589780
Si      15.38331018       7.70232760       5.36737795
Si      16.32589335       9.47117361       5.36737795
Si      14.32273619       9.40305158       5.36737795
Si      10.55895367       1.10154230       2.06263891
Si      14.22519942       8.59355096       2.06263891
Si       5.90380672       8.02260859       2.06263891
Si      15.34397991       8.85885093       0.42530023
Si      15.34397991       8.85885093       3.70434728
20
Lattice="10.230144720524645 1.1102007932018932e-11 1.4332214624742672e-14 5.115072360252712 8.859565212371146 -3.3289960818749914e-14 5.1150723602591075 2.9531884041274457 7.2363565577134565" Properties=species:S:1:pos:R:3 unique_starting_index=8 config_type=initial n_minim_iter=16 stress="-2.8270793582536807e-05 -8.627165191695347e-16 1.041408849563072e-13 -8.627165191695347e-16 -2.8270793629565818e-05 -6.477109920112665e-14 1.041408849563072e-13 -6.477109920112665e-14 -7.46433009951902e-05" pbc="T T T"
Si      12.68281961       4.16163619       2.63197991
Si      10.51479698       8.90282587       2.63197991
Si       7.49281759       4.65466836       2.63197991
Si       6.81456928       6.58792526       5.27159786
Si      11.34769417       2.60762748       5.27159786
Si      12.52817072       8.52357768       5.27159786
Si      10.17239839       1.74936546       6.64524226
Si      13.85909532       7.93487269       6.64524226
Si       6.65894046       8.03489227       6.64524226
Si       6.54018176       7.55164892       0.22551580
Si      10.65027876       1.88813909       0.22551580
Si      13.49997365       8.27934242       0.22551580
Si      15.38423360       7.70303303       5.36700277
Si      16.32729508       9.47162060       5.36700277
Si      14.32412257       9.40404201       5.36700277
Si      10.55933864       1.10181809       2.06238012
Si      14.22641767       8.59374646       2.06238012
Si       5.90467786       8.02356588       2.06238012
Si      15.34521708       8.85956521       0.42514592
Si      15.34521708       8.85956521       3.70398080
20
Lattice="10.231059605566006 1.1108701642442236e-11 1.433402086277064e-14 5.115529802773387 8.860357526058513 -3.328698095632915e-14 5.115529802779786 2.9534525086899026 7.235546934881024" Properties=species:S:1:pos:R:3 unique_starting_index=8 config_type=initial n_minim_iter=17 stress="7.434875115641117e-07 2.611757974842939e-16 1.0562182333707324e-13 2.611757974842939e-16 7.434874745262354e-07 -6.245269253467453e-14 1.0562182333707324e-13 -6.245269253467453e-14 6.069893288238568e-06" pbc="T T T"
Si      12.68372028       4.16224827       2.63183205
Si      10.51564634       8.90329984       2.63183205
Si       7.49381221       4.65516695       2.63183205
Si       6.81499904       6.58875707       5.27078586
Si      11.34858869       2.60758376       5.27078586
Si      12.52959109       8.52437422       5.27078586
Si      10.17331026       1.74977199       6.64472277
Si      13.86011709       7.93545913       6.64472277
Si       6.65975147       8.03548393       6.64472277
Si       6.54111774       7.55277389       0.22519595
Si      10.65066629       1.88838718       0.22519595
Si      13.50139480       8.27955398       0.22519595
Si      15.38559557       7.70382955       5.36684357
Si      16.32866894       9.47240184       5.36684357
Si      14.32550372       9.40484119       5.36684357
Si      10.55913486       1.10191772       2.06197006
Si      14.22826305       8.59352017       2.06197006
Si       5.90578092       8.02527717       2.06197006
Si      15.34658941       8.86035753       0.42456264
Si      15.34658941       8.86035753       3.70375486
