6
Lattice="3.733681410460368 -0.41497710212633415 2.8314470405811374e-17 -1.0902272860289308 7.194927307390092 -4.909199946666627e-16 1.333896292288784e-25 5.394632590635374e-16 7.906377772329206" Properties=species:S:1:pos:R:3 unique_starting_index=22 config_type=initial n_minim_iter=1 energy=-994.8023565914791 free_energy=-994.8023565914791 pbc="T T T"
Si       3.08010243       2.20658214       0.10610867
Si      -0.43664207       4.57340983       0.10610867
Si       1.43019863       4.36592128       5.07475827
Si       1.21326173       2.41407069       5.07475827
Si       0.38830983       3.49374026       6.54362236
Si       2.25515053       3.28625171       6.54362236
6
Lattice="3.7336747692041654 -0.41497636398910426 2.831442004167234e-17 -1.0902255448362757 7.194912727636755 -4.909189998696145e-16 1.3339080512092661e-25 5.394609128711715e-16 7.906343386515381" Properties=species:S:1:pos:R:3 unique_starting_index=22 config_type=initial n_minim_iter=2 stress="-1.0875205020655606e-05 1.913553296082957e-06 2.6158573298607406e-16 1.913553296082957e-06 6.1289642191256785e-06 1.838277788210063e-15 2.6158573298607406e-16 1.838277788210063e-15 4.991619060238489e-06" pbc="T T T"
Si       3.08009694       2.20657812       0.10610747
Si      -0.43664148       4.57340001       0.10610747
Si       1.43019590       4.36591183       5.07473694
Si       1.21325956       2.41406631       5.07473694
Si       0.38830904       3.49373316       6.54359390
Si       2.25514642       3.28624497       6.54359390
