22
Lattice="8.936063648427096 -3.0504450887709895 -2.816002857347634 -7.275013328157961 10.292611268646883 -0.24682934584013944 -6.716414823897363 -1.4663602847128352 13.963087597194855" Properties=species:S:1:pos:R:3 unique_starting_index=18 config_type=initial n_minim_iter=1 energy=-3634.1908363400808 free_energy=-3634.1908363400808 pbc="T T T"
Si      -1.63240575       7.90978425      -0.69874463
Si      -1.15958711       0.32494908       6.87206822
Si      -5.49684333      -1.01568881      11.42835421
Si       0.08640375      -1.27808014      11.81582646
Si      -9.22063091       3.01992326      13.10599904
Si       6.01906924       0.95588797      -0.68724803
Si       5.16132863      -0.70117945      -1.42719293
Si      -2.10483210       0.76227840      10.54045405
Si      -2.70074882      -0.95431473      11.36188608
Si      -7.92648316       3.02242093       8.49057713
Si       0.28752470       0.40569908       3.91189465
Si      -6.34725209       5.27774449       7.29618674
Si      -5.22108500      -0.81304444       9.57504808
Si      -2.73494339       6.33428700      -0.11927921
Si      -0.24536322       1.41591344       5.45555974
Si      -0.98521959       6.71039725       0.76124349
Si      -2.25063867       1.42356604       3.89269914
Si       3.88305663      -5.33238949       7.90344293
Si      -0.40774029       2.17530456       3.65573030
Si      -6.37777032       4.27276709       8.76221815
Si      -5.78026566       3.69629478       6.96543717
Si      -3.22927294      -0.53884723       9.50242919
22
Lattice="8.92446142372109 -3.063350510924018 -2.8135883827749724 -7.275823204830528 10.309317776803981 -0.25008902931031096 -6.698116853527871 -1.459595837571485 13.96746059731399" Properties=species:S:1:pos:R:3 unique_starting_index=18 config_type=initial n_minim_iter=2 stress="-0.02150493491376375 -0.011591638154431826 0.003523076055637252 -0.011591638154431826 -0.007175925094173114 -0.0025185054177720686 0.003523076055637252 -0.0025185054177720686 -0.0007693731123173315" pbc="T T T"
Si      -1.63970545       7.91745016      -0.70015028
Si      -1.15463441       0.32708495       6.87442374
Si      -5.48203197      -1.00964777      11.43188274
Si       0.09337072      -1.27891566      11.82162191
Si      -9.20399592       3.03285414      13.10902905
Si       6.00797302       0.94906092      -0.68527393
Si       5.15302422      -0.70643984      -1.42592375
Si      -2.09842320       0.76498203      10.54465108
Si      -2.69019352      -0.95261866      11.36719239
Si      -7.91397684       3.03426480       8.49178736
Si       0.28819544       0.40561038       3.91416615
Si      -6.34010591       5.28947718       7.29712686
Si      -5.20704828      -0.80764560       9.57803014
Si      -2.73873317       6.34273012      -0.12102637
Si      -0.24446337       1.41710022       5.45887573
Si      -0.99023283       6.71601760       0.76237671
Si      -2.24628098       1.42822934       3.89377352
Si       3.88641915      -5.34118399       7.90921170
Si      -0.40835147       2.17727221       3.65757820
Si      -6.36957332       4.28332491       8.76359454
Si      -5.77274812       3.70663780       6.96681604
Si      -3.21965875      -0.53517541       9.50633621
22
Lattice="8.932914111710156 -3.070056319517197 -2.816317694037242 -7.282188335093184 10.33042292833578 -0.24704190535613546 -6.703852983113653 -1.4581202967027653 13.97786142634789" Properties=species:S:1:pos:R:3 unique_starting_index=18 config_type=initial n_minim_iter=3 stress="0.005967412170734566 -0.0025658241874851073 0.009435993059130798 -0.0025658241874851073 0.025133953053929643 -0.004051408303926332 0.009435993059130798 -0.004051408303926332 0.014070481039487484" pbc="T T T"
Si      -1.64112105       7.93301807      -0.69862569
Si      -1.15421033       0.33113639       6.87871584
Si      -5.48658616      -1.00725918      11.44033768
Si       0.09563446      -1.27646748      11.82973638
Si      -9.21172906       3.04265795      13.12067974
Si       6.01354340       0.95041039      -0.68554754
Si       5.15667719      -0.70577975      -1.42718028
Si      -2.10088049       0.76949412      10.55260472
Si      -2.69147493      -0.95232196      11.37715170
Si      -7.92133922       3.04314658       8.49966900
Si       0.28856588       0.40777350       3.91777812
Si      -6.34488018       5.30297964       7.30429208
Si      -5.21032001      -0.80658794       9.58576181
Si      -2.74226332       6.35608651      -0.12012762
Si      -0.24445239       1.42173784       5.46487330
Si      -0.98848025       6.72873852       0.76769908
Si      -2.24720271       1.43404462       3.89734579
Si       3.88986359      -5.34928665       7.91395028
Si      -0.40809993       2.18298999       3.66149218
Si      -6.37585215       4.29454124       8.77094462
Si      -5.77812534       3.71785535       6.97397803
Si      -3.22227438      -0.53247788       9.51438378
22
Lattice="8.938408652537522 -3.0633519495226906 -2.8318998807598708 -7.277552160086782 10.30788449525842 -0.2195907080424981 -6.73095831652697 -1.440131691964638 13.966221466550387" Properties=species:S:1:pos:R:3 unique_starting_index=18 config_type=initial n_minim_iter=4 stress="0.004961272466541467 -0.003661497102888413 0.0026768084534601116 -0.003661497102888413 -0.003055807171938513 0.006407155683375312 0.0026768084534601116 0.006407155683375312 -0.0074831286979700476" pbc="T T T"
Si      -1.63612307       7.91599872      -0.68427521
Si      -1.16447404       0.34108948       6.86810593
Si      -5.50839001      -0.99125842      11.43077407
Si       0.07671394      -1.25628597      11.80743994
Si      -9.23532046       3.04931782      13.12223425
Si       6.01586874       0.94924329      -0.69489621
Si       5.15790979      -0.69950605      -1.43508845
Si      -2.12177179       0.77967486      10.53946063
Si      -2.71147079      -0.93985075      11.36553354
Si      -7.93734372       3.04507186       8.50560082
Si       0.28144715       0.41238147       3.91234004
Si      -6.35516616       5.30051811       7.31097726
Si      -5.22651211      -0.79561666       9.58033927
Si      -2.74126742       6.34353952      -0.10868081
Si      -0.25368292       1.42616090       5.46067465
Si      -0.98238980       6.71534522       0.78141406
Si      -2.25293499       1.43751389       3.89678867
Si       3.87266819      -5.32683901       7.88747089
Si      -0.41252489       2.18375749       3.65987616
Si      -6.39240590       4.29438236       8.77269835
Si      -5.79066216       3.72039900       6.97968963
Si      -3.24007834      -0.51897923       9.50620981
22
Lattice="8.926911099271528 -3.049892787016473 -2.8448072296215545 -7.255654334098409 10.299664318784497 -0.22122605072172796 -6.743418727260631 -1.4635698391705123 13.99565675081861" Properties=species:S:1:pos:R:3 unique_starting_index=18 config_type=initial n_minim_iter=5 stress="-0.0056345626441089 -0.0008103884385639489 -0.007438390165664815 -0.0008103884385639489 -0.0003349276239561542 -0.006988742263904523 -0.007438390165664815 -0.006988742263904523 -0.003837673053742934" pbc="T T T"
Si      -1.62377188       7.91430894      -0.69161980
Si      -1.17181931       0.33212226       6.87788560
Si      -5.51814352      -1.00935606      11.45444607
Si       0.05922000      -1.26987747      11.82404117
Si      -9.23879233       3.02457570      13.14916300
Si       6.00976584       0.95657219      -0.70572133
Si       5.15190007      -0.69082176      -1.44372671
Si      -2.13383252       0.76422637      10.55440057
Si      -2.72488391      -0.95758146      11.38632520
Si      -7.93619500       3.02613984       8.52509148
Si       0.27556603       0.40807731       3.91696479
Si      -6.35030824       5.28510997       7.32307504
Si      -5.23269449      -0.81290781       9.60199267
Si      -2.73025700       6.34051403      -0.11308122
Si      -0.25889252       1.42033643       5.46644329
Si      -0.97344825       6.71263195       0.77773958
Si      -2.25412250       1.43048673       3.90258877
Si       3.84931148      -5.33129612       7.89826823
Si      -0.41373298       2.17902987       3.66290834
Si      -6.39251046       4.27655327       8.78704957
Si      -5.78928545       3.70781697       6.99357313
Si      -3.24980914      -0.53293871       9.52448403
22
Lattice="8.909230951670983 -3.0356217910080825 -2.8518678896084126 -7.230377451937799 10.274676686436386 -0.21240243526331182 -6.727840278399223 -1.452615418332895 14.033498325188624" Properties=species:S:1:pos:R:3 unique_starting_index=18 config_type=initial n_minim_iter=6 stress="-0.007079799165250098 0.007336452661854436 0.0016472171222933292 0.007336452661854436 -0.0002667168269936474 -1.0268929093331072e-06 0.0016472171222933292 -1.0268929093331072e-06 0.0055485496547952665" pbc="T T T"
Si      -1.60935999       7.89927328      -0.68283921
Si      -1.16366125       0.34018304       6.89815385
Si      -5.50449256      -0.99789987      11.48517136
Si       0.06601483      -1.25354931      11.86111103
Si      -9.21504292       3.02655471      13.18856850
Si       6.00437052       0.96523636      -0.70233237
Si       5.14450379      -0.68321018      -1.44656174
Si      -2.12453255       0.77272078      10.58623411
Si      -2.71528756      -0.94766899      11.42081203
Si      -7.91845069       3.02076810       8.55232551
Si       0.27764659       0.41310968       3.93126124
Si      -6.32756789       5.27904085       7.34829317
Si      -5.21906098      -0.80811204       9.62986092
Si      -2.71591295       6.32883744      -0.10847959
Si      -0.25113911       1.42752220       5.48570903
Si      -0.95923336       6.70377132       0.79170425
Si      -2.24693320       1.42971561       3.91340473
Si       3.83959188      -5.30710550       7.91854733
Si      -0.40511478       2.18048356       3.67787645
Si      -6.37406899       4.27239741       8.81347343
Si      -5.77330386       3.70884795       7.01900891
Si      -3.23934066      -0.52339913       9.55289835
22
Lattice="8.935165400618676 -3.05178624627969 -2.8689940245706405 -7.261917738349916 10.28404177933594 -0.198053381984329 -6.752370461269282 -1.4303671090702836 14.069914056579377" Properties=species:S:1:pos:R:3 unique_starting_index=18 config_type=initial n_minim_iter=7 stress="0.012436971551694848 -0.0033642300896844757 0.0003143708503819131 -0.0033642300896844757 -0.0039023321611602923 -0.005072673530715544 0.0003143708503819131 -0.005072673530715544 0.009323530003130959" pbc="T T T"
Si      -1.62340119       7.89748805      -0.67391164
Si      -1.17043514       0.34821851       6.91222858
Si      -5.52392075      -0.97450546      11.51401171
Si       0.05816732      -1.24837715      11.88789567
Si      -9.25253228       3.05318419      13.22841650
Si       6.01674874       0.95592268      -0.70946517
Si       5.16097810      -0.69195030      -1.45552506
Si      -2.14478905       0.78088980      10.61030366
Si      -2.73119478      -0.93895120      11.44919047
Si      -7.95288376       3.03785193       8.58369467
Si       0.27212488       0.41441328       3.94221109
Si      -6.35370608       5.29430879       7.37231915
Si      -5.23638995      -0.79521064       9.65966573
Si      -2.72838868       6.33370288      -0.10366060
Si      -0.25672196       1.43495554       5.49894881
Si      -0.97244863       6.70384556       0.80300480
Si      -2.25834197       1.43444871       3.92011137
Si       3.84517205      -5.30614151       7.92824696
Si      -0.41003596       2.18221568       3.68917163
Si      -6.40702454       4.28672069       8.83612692
Si      -5.80164085       3.73306177       7.04672474
Si      -3.25044771      -0.50997413       9.57832625
22
Lattice="8.928198497644352 -3.06087915478085 -2.8816380575423244 -7.251118406572215 10.304278514992593 -0.17157719885213912 -6.760330964425716 -1.4101455967336547 14.064091432437541" Properties=species:S:1:pos:R:3 unique_starting_index=18 config_type=initial n_minim_iter=8 stress="0.0011520803634108856 0.0009211509544958476 -0.0035238530370710667 0.0009211509544958476 0.011612159220999107 0.005002619697396055 -0.0035238530370710667 0.005002619697396055 -6.446700481443213e-05" pbc="T T T"
Si      -1.61636301       7.91297951      -0.65570314
Si      -1.17382591       0.36203451       6.90682421
Si      -5.52958928      -0.95309857      11.50855391
Si       0.04685709      -1.23205729      11.87724560
Si      -9.25669813       3.08190888      13.23443214
Si       6.01286386       0.96025133      -0.71383149
Si       5.16007132      -0.69544856      -1.46044501
Si      -2.15671205       0.79866414      10.60503245
Si      -2.74168113      -0.92448757      11.44232580
Si      -7.95764469       3.05571481       8.59327786
Si       0.26657553       0.42160785       3.94194002
Si      -6.35122480       5.31758887       7.38120448
Si      -5.23982266      -0.78389269       9.66005923
Si      -2.72032795       6.34734167      -0.08998295
Si      -0.25951404       1.45078064       5.49765414
Si      -0.97119869       6.71894227       0.81767554
Si      -2.25846786       1.44397613       3.91810839
Si       3.82869615      -5.30222614       7.90891229
Si      -0.41136937       2.19204101       3.69210404
Si      -6.41168422       4.30898192       8.83894539
Si      -5.80522133       3.76136865       7.05773997
Si      -3.25469076      -0.49479641       9.57494773
22
Lattice="8.92789872189878 -3.0412267691937473 -2.860201278088639 -7.247817964116304 10.27126519567974 -0.1960678451768325 -6.732306691834331 -1.420920445697398 14.06791784859451" Properties=species:S:1:pos:R:3 unique_starting_index=18 config_type=initial n_minim_iter=9 stress="0.018099554087845356 0.010396420949318504 0.009104660768339663 0.010396420949318504 0.006549976740923924 0.004596339670083787 0.009104660768339663 0.004596339670083787 0.0030564235210381254" pbc="T T T"
Si      -1.60169632       7.89636911      -0.66563342
Si      -1.14783876       0.35959228       6.90646445
Si      -5.50383696      -0.94639555      11.50724629
Si       0.08484745      -1.23946141      11.89340670
Si      -9.23249056       3.06054497      13.23312274
Si       6.02219702       0.96812518      -0.70284815
Si       5.17435913      -0.69265227      -1.43965670
Si      -2.14144109       0.78073718      10.61240820
Si      -2.72126680      -0.93913724      11.45039903
Si      -7.95970029       3.02780117       8.59103720
Si       0.27291294       0.41583840       3.95708284
Si      -6.32673773       5.29339183       7.36499758
Si      -5.21444008      -0.80271576       9.67328049
Si      -2.70738664       6.32488837      -0.10240120
Si      -0.23485261       1.45591204       5.50275567
Si      -0.96529554       6.69914410       0.82186913
Si      -2.23941874       1.43685881       3.90488161
Si       3.83847212      -5.28727873       7.93469790
Si      -0.39724657       2.17740327       3.70050286
Si      -6.40355156       4.28276260       8.81363303
Si      -5.80234931       3.77816787       7.06330977
Si      -3.22692926      -0.50415613       9.58407379
22
Lattice="8.937878300514177 -3.054317068277838 -2.868587605023747 -7.2676457674236365 10.274139828727291 -0.18920936027406732 -6.7266958695447245 -1.3939893315875647 14.11511868599863" Properties=species:S:1:pos:R:3 unique_starting_index=18 config_type=initial n_minim_iter=10 stress="0.02209333577401739 0.009167649994121747 0.007449875457322146 0.009167649994121747 0.01098591264955235 0.0013053487357926488 0.007449875457322146 0.0013053487357926488 0.008200022413063234" pbc="T T T"
Si      -1.60380093       7.88596575      -0.65803027
Si      -1.13807724       0.37103567       6.92665644
Si      -5.49893729      -0.91158148      11.54187610
Si       0.10250862      -1.22554287      11.93098710
Si      -9.23838623       3.08285273      13.28638881
Si       6.02878680       0.96195142      -0.70394320
Si       5.18530344      -0.70229914      -1.43785327
Si      -2.13810826       0.79541120      10.65500091
Si      -2.71767301      -0.92813563      11.48818295
Si      -7.98093431       3.04147958       8.62867542
Si       0.27138343       0.41673400       3.98096175
Si      -6.33079960       5.30247971       7.38770776
Si      -5.20291015      -0.79218296       9.71493810
Si      -2.71725508       6.31777431      -0.09747688
Si      -0.22563837       1.47283612       5.52241233
Si      -0.98032419       6.70114596       0.83516853
Si      -2.23516055       1.44104112       3.91411238
Si       3.84747314      -5.27756096       7.96306977
Si      -0.39024627       2.17677346       3.72012154
Si      -6.42156448       4.29514667       8.83219940
Si      -5.82147828       3.82832402       7.10074029
Si      -3.22133006      -0.49446068       9.61807733
22
Lattice="8.933617369017313 -3.054812129857856 -2.866947807372185 -7.26989857094672 10.259392207555335 -0.18943751840399048 -6.713392081486998 -1.3810918831703178 14.124813199708719" Properties=species:S:1:pos:R:3 unique_starting_index=18 config_type=initial n_minim_iter=11 stress="0.0005521121289429415 0.004139809312771581 0.006709839249266649 0.004139809312771581 -0.006884406265495446 -0.0006991435377883393 0.006709839249266649 -0.0006991435377883393 -0.0008751401061659588" pbc="T T T"
Si      -1.60085516       7.87001576      -0.66257135
Si      -1.12660714       0.37709322       6.92667709
Si      -5.49013558      -0.89144548      11.54490412
Si       0.11411548      -1.22220736      11.94152127
Si      -9.23202784       3.08412419      13.29763860
Si       6.02800829       0.95812369      -0.70500257
Si       5.19038724      -0.70362728      -1.43493836
Si      -2.12409511       0.80218848      10.67141885
Si      -2.70463748      -0.92742232      11.49759626
Si      -7.98856772       3.04033165       8.63994009
Si       0.26998329       0.41436897       3.99375234
Si      -6.32432680       5.29427329       7.38735643
Si      -5.19202086      -0.79249442       9.72846018
Si      -2.72067836       6.30088347      -0.09472881
Si      -0.21716680       1.48181346       5.52732798
Si      -0.99069827       6.68659220       0.84298820
Si      -2.22947083       1.44282717       3.91582166
Si       3.84992945      -5.26393526       7.97537509
Si      -0.37623813       2.17299301       3.72605248
Si      -6.42759310       4.29198628       8.82733566
Si      -5.83050674       3.86462614       7.11286374
Si      -3.20619539      -0.49519725       9.62423107
22
Lattice="8.947194152797904 -3.0558170802225617 -2.881429527687157 -7.286235621290601 10.239114450450108 -0.1818353969536711 -6.734519550281648 -1.3715325288762692 14.151079696714516" Properties=species:S:1:pos:R:3 unique_starting_index=18 config_type=initial n_minim_iter=12 stress="-0.007840545554445216 0.00207604160930225 -0.0015357790755912031 0.00207604160930225 -0.01576049806777339 0.0027390338897303043 -0.0015357790755912031 0.0027390338897303043 0.003727810492909069" pbc="T T T"
Si      -1.60780257       7.84561576      -0.66738831
Si      -1.13493175       0.37675510       6.93499820
Si      -5.51153531      -0.88200819      11.56252905
Si       0.10471022      -1.22171752      11.95600322
Si      -9.26013843       3.08051765      13.32377789
Si       6.03637633       0.95206170      -0.71525043
Si       5.19342159      -0.71038065      -1.44546868
Si      -2.14009005       0.80008730      10.69300786
Si      -2.71234812      -0.92633942      11.51566956
Si      -8.01648349       3.03930919       8.66363993
Si       0.26236640       0.41039506       4.00291700
Si      -6.34602714       5.28542367       7.40243321
Si      -5.20493944      -0.79043781       9.74812115
Si      -2.72643641       6.28652257      -0.08966956
Si      -0.22312356       1.48288934       5.53160754
Si      -1.00372582       6.66902458       0.84671849
Si      -2.23253920       1.44310438       3.92491011
Si       3.84954738      -5.25257243       7.98557740
Si      -0.37967918       2.16499912       3.73008390
Si      -6.45520317       4.28541374       8.84392294
Si      -5.85573962       3.87844804       7.12783418
Si      -3.21702621      -0.49779671       9.63873375
22
Lattice="8.951176784338303 -3.049322121665874 -2.8263142658204377 -7.300268058031753 10.2415137755127 -0.23758323785709917 -6.704441649108054 -1.4197884898655535 14.038392994262223" Properties=species:S:1:pos:R:3 unique_starting_index=18 config_type=initial n_minim_iter=13 stress="-0.0030622419549556942 0.002409433643920879 0.0008093249915581122 0.002409433643920879 -0.006159765339839141 -0.007187384621093516 0.0008093249915581122 -0.007187384621093516 -0.008046431326594964" pbc="T T T"
Si      -1.60878025       7.84177604      -0.69761305
Si      -1.11637554       0.35290832       6.87869304
Si      -5.49339072      -0.92074984      11.46389567
Si       0.13927033      -1.26823426      11.87748423
Si      -9.23981907       3.03037980      13.19038192
Si       6.04627369       0.95382488      -0.70049670
Si       5.19227765      -0.70982198      -1.42381892
Si      -2.11551263       0.75965852      10.61664645
Si      -2.67378621      -0.97087414      11.43046497
Si      -8.01577792       3.01056216       8.57383842
Si       0.26929348       0.39228646       3.97947626
Si      -6.34128547       5.26316005       7.31400134
Si      -5.17880241      -0.82891458       9.66701217
Si      -2.73342400       6.28599450      -0.11687153
Si      -0.20810834       1.46823420       5.48402403
Si      -1.00639771       6.66884846       0.81746320
Si      -2.22250011       1.43021836       3.88554487
Si       3.88086543      -5.28014792       7.96608912
Si      -0.36612980       2.14879538       3.69216749
Si      -6.44896222       4.25643817       8.74987659
Si      -5.85563057       3.87679223       7.04303594
Si      -3.19401890      -0.54147416       9.56173911
22
Lattice="8.963012346579092 -3.0741165354218336 -2.8557416158990456 -7.318407392816681 10.265849243644286 -0.2028846429234029 -6.731041518343622 -1.3822795529552445 14.07458421892376" Properties=species:S:1:pos:R:3 unique_starting_index=18 config_type=initial n_minim_iter=14 stress="-0.008027135357157824 -0.0010952558034900061 -0.002004735789116011 -0.0010952558034900061 -0.004949131820576586 0.0003899475246227529 -0.002004735789116011 0.0003899475246227529 -0.0035052534613197244" pbc="T T T"
Si      -1.61456935       7.85121985      -0.68226976
Si      -1.13083178       0.36867332       6.89321953
Si      -5.52238464      -0.89155191      11.48851464
Si       0.11667621      -1.24808618      11.89591992
Si      -9.27474259       3.06563598      13.23567696
Si       6.04986932       0.93769440      -0.71633965
Si       5.20094483      -0.72592679      -1.43717663
Si      -2.13834790       0.78345515      10.64943808
Si      -2.68801476      -0.94829083      11.45330097
Si      -8.04847854       3.04745019       8.61605967
Si       0.25659050       0.39592911       3.99006402
Si      -6.37271674       5.30442635       7.35448253
Si      -5.18969266      -0.80688659       9.68773266
Si      -2.74799082       6.29900559      -0.09614035
Si      -0.22127905       1.48749063       5.49441171
Si      -1.01619436       6.68648623       0.83755457
Si      -2.23246578       1.44583192       3.90024136
Si       3.88017259      -5.27563575       7.97185909
Si      -0.37090220       2.15802738       3.69817381
Si      -6.48181010       4.29147044       8.79478293
Si      -5.88517565       3.92234177       7.06429873
Si      -3.21216190      -0.52893469       9.58195299
22
Lattice="8.948941031369017 -3.069757178826577 -2.8646036877019787 -7.302472903267543 10.267048459406967 -0.20668155558977772 -6.724176528845131 -1.3920669749532295 14.119622333258596" Properties=species:S:1:pos:R:3 unique_starting_index=18 config_type=initial n_minim_iter=15 stress="0.0029416461882758936 0.006377092678870028 -0.0011702454533294136 0.006377092678870028 0.0011032829685501274 0.0035247364564489434 -0.0011702454533294136 0.0035247364564489434 0.0034385112467420426" pbc="T T T"
Si      -1.60089401       7.84533100      -0.68455324
Si      -1.12788169       0.36821887       6.91064717
Si      -5.52185895      -0.90178668      11.51993271
Si       0.11583092      -1.25171301      11.92999405
Si      -9.26882720       3.04943182      13.27550472
Si       6.04595242       0.93490442      -0.72295586
Si       5.19530513      -0.72703809      -1.43983834
Si      -2.13175261       0.77404955      10.68683824
Si      -2.68360408      -0.95863531      11.48754650
Si      -8.04474353       3.04621259       8.64793254
Si       0.25138997       0.39021818       4.00358987
Si      -6.36871163       5.31370110       7.38227688
Si      -5.18375302      -0.81967749       9.71063013
Si      -2.74244070       6.30115722      -0.09639317
Si      -0.22407398       1.48963400       5.51223655
Si      -1.00970225       6.69659530       0.83683376
Si      -2.22656373       1.45007259       3.91373278
Si       3.87646994      -5.27885566       8.00922166
Si      -0.36535884       2.15600485       3.70097807
Si      -6.47821563       4.28813980       8.83222669
Si      -5.88308166       3.93381353       7.07090773
Si      -3.19801259      -0.54267940       9.61158205
22
Lattice="8.947275137981856 -3.0792377985471946 -2.8627385959925284 -7.314062856622182 10.274852779904574 -0.22140239145200535 -6.715413841416135 -1.3989816681372946 14.136761360708588" Properties=species:S:1:pos:R:3 unique_starting_index=18 config_type=initial n_minim_iter=16 stress="-0.0017703497962976318 -0.0004265139130241625 -0.0023786584885159452 -0.0004265139130241625 -0.0002443217507437566 0.0038925215623054387 -0.0023786584885159452 0.0038925215623054387 0.000824593205179151" pbc="T T T"
Si      -1.60974341       7.84207737      -0.69607067
Si      -1.12430353       0.36366755       6.91408558
Si      -5.51631697      -0.90768413      11.53050397
Si       0.12020969      -1.26552166      11.94199883
Si      -9.26648408       3.04199101      13.28602129
Si       6.04550156       0.92513887      -0.72374215
Si       5.19323388      -0.74178361      -1.43985585
Si      -2.13061124       0.76186210      10.69912322
Si      -2.67926263      -0.97295281      11.50142173
Si      -8.04858959       3.05085964       8.65699457
Si       0.24818223       0.38167469       4.00769997
Si      -6.37576115       5.32054869       7.38805562
Si      -5.17230099      -0.82692762       9.71545846
Si      -2.75018633       6.30048135      -0.10495291
Si      -0.22960592       1.48414110       5.51883528
Si      -1.02060286       6.69443615       0.82995084
Si      -2.23022504       1.45229426       3.91665564
Si       3.88519197      -5.29501907       8.03300514
Si      -0.36171970       2.15164288       3.69574264
Si      -6.48290834       4.28603711       8.84357061
Si      -5.88947492       3.94408771       7.06330275
Si      -3.18818787      -0.55342884       9.62509323
22
Lattice="8.954205051597793 -3.0701616646122853 -2.8514847906466247 -7.329828780048278 10.242725520127404 -0.2509147863970395 -6.707767921224378 -1.4184890550505527 14.147608590157173" Properties=species:S:1:pos:R:3 unique_starting_index=18 config_type=initial n_minim_iter=17 stress="0.0046488151383095346 -0.004936208902206262 -0.0007417851713729603 -0.004936208902206262 -0.0038573940177835924 0.002177015396628674 -0.0007417851713729603 0.002177015396628674 0.004076525343915371" pbc="T T T"
Si      -1.61449914       7.80256556      -0.71468529
Si      -1.11783063       0.34864782       6.91664195
Si      -5.50903582      -0.92114045      11.53158321
Si       0.12783237      -1.28886731      11.95037468
Si      -9.26208522       3.00161668      13.28464438
Si       6.05923077       0.91105150      -0.72195037
Si       5.20326733      -0.74971996      -1.44091024
Si      -2.12846707       0.73959752      10.71060850
Si      -2.67133262      -1.00705812      11.51700443
Si      -8.07144277       3.03400654       8.66210067
Si       0.24356899       0.36510162       4.01017108
Si      -6.38673762       5.30807113       7.39092548
Si      -5.15488432      -0.84904715       9.70639315
Si      -2.75597795       6.27095468      -0.12427854
Si      -0.23360029       1.47762560       5.51687829
Si      -1.03083437       6.66452890       0.81862629
Si      -2.22981397       1.45450235       3.91417671
Si       3.89877956      -5.30399987       8.07117524
Si      -0.35701351       2.13314363       3.67927399
Si      -6.48587693       4.26099718       8.85360145
Si      -5.90543841       3.94992196       7.03463743
Si      -3.16843689      -0.57962042       9.63758572
22
Lattice="8.96555755992174 -3.079444911757141 -2.8442323152563973 -7.350269313493976 10.249068446737262 -0.2587549879268737 -6.708382720987693 -1.417525767754659 14.130895637045246" Properties=species:S:1:pos:R:3 unique_starting_index=18 config_type=initial n_minim_iter=18 stress="0.009926199543538471 2.00491045362302e-05 -0.0040372117282984924 2.00491045362302e-05 0.009688364380456066 -0.0024012937890080226 -0.0040372117282984924 -0.0024012937890080226 0.00899047416377363" pbc="T T T"
Si      -1.61941057       7.80033526      -0.72074402
Si      -1.11340876       0.34694404       6.90546909
Si      -5.50502209      -0.91263079      11.51024698
Si       0.13723486      -1.30040502      11.93500180
Si      -9.27188657       2.99882933      13.25947319
Si       6.07323681       0.89738453      -0.72075633
Si       5.21064152      -0.76579269      -1.44148988
Si      -2.12708393       0.73775974      10.70555820
Si      -2.66680696      -1.02487081      11.51142494
Si      -8.09499179       3.05155205       8.66089962
Si       0.23741699       0.35720148       4.00538276
Si      -6.40300752       5.32804110       7.39205993
Si      -5.14564623      -0.85805212       9.68140340
Si      -2.76704095       6.26474326      -0.12819142
Si      -0.24185517       1.48679599       5.50477884
Si      -1.04094408       6.66629600       0.82172358
Si      -2.23078109       1.45921363       3.90274951
Si       3.90600112      -5.32177792       8.07968498
Si      -0.36191878       2.12577596       3.66108005
Si      -6.50360631       4.26008818       8.85041041
Si      -5.92896465       3.98493286       7.00502553
Si      -3.15285227      -0.59304073       9.63004384
22
Lattice="8.979625775612785 -3.0940018321649023 -2.7871813494598827 -7.383819571497525 10.270498625526669 -0.29388342967319514 -6.6657059943223596 -1.4190504702966806 14.011061815708098" Properties=species:S:1:pos:R:3 unique_starting_index=18 config_type=initial n_minim_iter=19 stress="0.009991460371189552 -0.0031516240181925417 -0.0040895457867723 -0.0031516240181925417 0.014995644327044028 -0.008117430242426659 -0.0040895457867723 -0.008117430242426659 0.010164998394690651" pbc="T T T"
Si      -1.62905317       7.80155840      -0.73552322
Si      -1.07838133       0.34647639       6.84796074
Si      -5.45790520      -0.89471968      11.39610206
Si       0.20198773      -1.32120925      11.85214720
Si      -9.25261588       2.99546187      13.11641204
Si       6.09730724       0.86910157      -0.69835085
Si       5.22473441      -0.78407929      -1.41265590
Si      -2.08663528       0.72537247      10.64534372
Si      -2.61827045      -1.05024671      11.43510855
Si      -8.11668915       3.08675876       8.59448186
Si       0.24035950       0.34541678       3.98043618
Si      -6.40694689       5.37452244       7.34323524
Si      -5.08923044      -0.87960225       9.57307401
Si      -2.77018372       6.26785411      -0.13617316
Si      -0.23790717       1.51109227       5.45461444
Si      -1.05864209       6.67804536       0.82185800
Si      -2.22490961       1.46721550       3.86104063
Si       3.94137877      -5.35810709       8.07064148
Si      -0.34811339       2.11823223       3.60844850
Si      -6.50514766       4.26149365       8.77912310
Si      -5.95244098       4.05900343       6.89923948
Si      -3.09709392      -0.62224968       9.56193335
22
Lattice="8.996103260086748 -3.146001263722977 -2.7515285002875003 -7.435898874393779 10.33848360195881 -0.29703839063919985 -6.635998176601143 -1.3807153780803725 13.899246488777392" Properties=species:S:1:pos:R:3 unique_starting_index=18 config_type=initial n_minim_iter=20 stress="0.0186801518010674 -0.0014964323623296151 -0.005128353080067291 -0.0014964323623296151 0.021825212808207272 -0.00920191112349673 -0.005128353080067291 -0.00920191112349673 0.010420461251278356" pbc="T T T"
Si      -1.65820513       7.82691312      -0.73560358
Si      -1.05479827       0.35772245       6.79515219
Si      -5.42212516      -0.84305770      11.28673143
Si       0.24243001      -1.32210578      11.75758556
Si      -9.25636296       3.04693693      13.00229886
Si       6.11379906       0.83227004      -0.68267419
Si       5.23929113      -0.82220963      -1.39932794
Si      -2.06367604       0.72369409      10.58943963
Si      -2.58230567      -1.04252038      11.35674163
Si      -8.16085828       3.16764048       8.55002991
Si       0.23789230       0.34369369       3.95708027
Si      -6.43241304       5.46863711       7.31729498
Si      -5.04339984      -0.87530699       9.47572652
Si      -2.79346481       6.28780167      -0.13013034
Si      -0.24490960       1.55444016       5.40016738
Si      -1.08988643       6.71395827       0.84064546
Si      -2.22735964       1.48589068       3.82741916
Si       3.97247416      -5.39940534       8.04310649
Si      -0.34547074       2.12361553       3.56103245
Si      -6.52125667       4.30825846       8.71885873
Si      -5.99364804       4.17376557       6.81373814
Si      -3.04426809      -0.62244803       9.50167457
22
Lattice="9.039051443365963 -3.2224771978215268 -2.716215183463263 -7.530286381863178 10.433748414226022 -0.30618284987083866 -6.6139254409404575 -1.331788134856897 13.803801666637437" Properties=species:S:1:pos:R:3 unique_starting_index=18 config_type=initial n_minim_iter=21 stress="0.0218179143635884 -0.002423853014387741 -0.011967276226204934 -0.002423853014387741 0.016642476339432662 -0.015599250739965636 -0.011967276226204934 -0.015599250739965636 0.013299539408140012" pbc="T T T"
Si      -1.70924676       7.85464915      -0.73980220
Si      -1.00966320       0.37326638       6.73367195
Si      -5.38701862      -0.77212904      11.17012755
Si       0.29957935      -1.33932372      11.66625188
Si      -9.28813613       3.11875383      12.89061274
Si       6.14827768       0.76570878      -0.67037955
Si       5.27829273      -0.88878373      -1.38338407
Si      -2.03909164       0.71701455      10.56265295
Si      -2.54441094      -1.05805212      11.30699468
Si      -8.28010706       3.29327743       8.54589451
Si       0.23114064       0.34260892       3.94445279
Si      -6.49547295       5.61887392       7.32678738
Si      -4.97603212      -0.88614058       9.38237436
Si      -2.82811495       6.30320577      -0.12714469
Si      -0.26761905       1.61270334       5.34435336
Si      -1.15057127       6.76442444       0.86176126
Si      -2.23399057       1.50639668       3.79299330
Si       4.02265790      -5.45242163       8.04767755
Si      -0.35081467       2.12266765       3.49880456
Si      -6.56372369       4.36530095       8.65767539
Si      -6.08335048       4.35918838       6.71507275
Si      -2.97548377      -0.64243769       9.45341244
