22
Lattice="7.504527296071388 -2.4188485049690214 -2.9047597960559117 -5.057846527574412 10.619745338305115 0.45668742781732147 -5.935638970539304 -1.4200881835167676 13.599028357267807" Properties=species:S:1:pos:R:3 unique_starting_index=18 config_type=initial n_minim_iter=1 energy=-3611.4208855194943 free_energy=-3611.4208855194943 pbc="T T T"
Si      -0.71217750       8.35576724       0.13608056
Si      -0.77269019       1.24107810       7.19262902
Si      -5.28971409      -0.88529549      10.95451631
Si       0.06005645      -0.69647300      11.67303567
Si      -7.83214808       3.49640159      13.75526321
Si       4.81011195       1.32559763      -0.46475527
Si       4.57058767      -0.49785640      -1.24263538
Si      -2.00302608       2.06148008      10.37430359
Si      -2.61960143      -0.83250636      11.24060724
Si      -5.51709466       3.00808489       8.92689923
Si       1.08929140       0.63172333       4.29990084
Si      -4.64950964       5.50612164       7.35187924
Si      -4.84759145      -0.21147201       9.18707224
Si      -1.99532401       6.89862942       0.46295669
Si       0.47019675       1.85219291       5.75645865
Si       0.71814084       6.97175819       0.19126642
Si      -1.38272751       0.52868481       4.21174281
Si       3.10964635      -4.42073161       6.64452901
Si      -0.17191394       2.07782614       3.87605842
Si      -5.24114721       4.98140805       9.17591079
Si      -4.02045863       5.33477262       5.44077105
Si      -3.05801431       0.45471268       9.81197976
22
Lattice="7.528709744458982 -2.4051326991678086 -2.8817056576760107 -5.066365364791605 10.614940021259887 0.4270180899726392 -5.9375180677399095 -1.4522882639225763 13.569176469072232" Properties=species:S:1:pos:R:3 unique_starting_index=18 config_type=initial n_minim_iter=2 stress="0.017420666229508212 0.01012328091365452 0.005205312663135402 0.01012328091365452 0.015929338034560772 -2.519930822977997e-05 0.005205312663135402 -2.519930822977997e-05 0.007271712094396703" pbc="T T T"
Si      -0.70521026       8.35681062       0.11895922
Si      -0.76159548       1.22695997       7.17823698
Si      -5.29257968      -0.91250329      10.92821377
Si       0.08156906      -0.71809040      11.65652370
Si      -7.83597734       3.46370369      13.71226513
Si       4.83171522       1.33296316      -0.45707838
Si       4.58736846      -0.49137450      -1.23116437
Si      -1.98968371       2.04053930      10.35028567
Si      -2.61086300      -0.85555849      11.21920776
Si      -5.52017265       2.98646019       8.89728339
Si       1.10256570       0.62505101       4.29364515
Si      -4.64917009       5.48768120       7.32001440
Si      -4.85137138      -0.23396900       9.16407321
Si      -1.99503519       6.89601457       0.44594580
Si       0.48477311       1.84310321       5.74444481
Si       0.72999475       6.97336207       0.17964746
Si      -1.38071249       0.51887012       4.20167160
Si       3.12985697      -4.42955062       6.64858616
Si      -0.16231246       2.07110569       3.86614028
Si      -5.24069154       4.95849485       9.14255572
Si      -4.02177423       5.32106311       5.41634771
Si      -3.05254428       0.43320125       9.79002030
22
Lattice="7.531375659256451 -2.401871421498254 -2.8705131524728693 -5.074111030620472 10.59732479319434 0.41263458760397687 -5.932692688356567 -1.4606074751189289 13.54321326094671" Properties=species:S:1:pos:R:3 unique_starting_index=18 config_type=initial n_minim_iter=3 stress="0.004205851250191623 -0.0007388928725153109 0.006077538616059895 -0.0007388928725153109 -0.015065691428265075 -0.0034521483503698117 0.006077538616059895 -0.0034521483503698117 -0.008155700158149398" pbc="T T T"
Si      -0.71038061       8.34201135       0.10915178
Si      -0.76003908       1.21708829       7.16420802
Si      -5.28867739      -0.91995273      10.90626402
Si       0.08685718      -0.72987578      11.63669172
Si      -7.83475801       3.44853862      13.67942275
Si       4.83248505       1.32888557      -0.45503897
Si       4.58875577      -0.49252315      -1.22677703
Si      -1.98666036       2.02633014      10.32797776
Si      -2.60601716      -0.86367434      11.19815169
Si      -5.51923020       2.97530869       8.87558719
Si       1.10412832       0.61838614       4.28506883
Si      -4.65053667       5.47153879       7.29701642
Si      -4.84808750      -0.24023235       9.14565797
Si      -1.99966835       6.88280395       0.43698592
Si       0.48664571       1.83422476       5.73180652
Si       0.72644031       6.95929524       0.17233074
Si      -1.38009347       0.51372908       4.19286606
Si       3.13611817      -4.42981508       6.64273341
Si      -0.16124893       2.06315248       3.85717192
Si      -5.24203707       4.94106277       9.11793139
Si      -4.02429013       5.30751223       5.40049220
Si      -3.05002101       0.42382653       9.77021496
22
Lattice="7.535131350747053 -2.4065530696187167 -2.874590355428365 -5.077143717293588 10.620361947835931 0.40991262839227227 -5.9439565799441345 -1.4710169993260187 13.547254543262246" Properties=species:S:1:pos:R:3 unique_starting_index=18 config_type=initial n_minim_iter=4 stress="0.007649784579100307 -0.0018283954232911485 -0.00010003965385674001 -0.0018283954232911485 0.013969114422758352 -0.013619404670955876 -0.00010003965385674001 -0.013619404670955876 -0.005272590329040261" pbc="T T T"
Si      -0.71237515       8.36118627       0.10381099
Si      -0.76756043       1.21457329       7.16518629
Si      -5.29732259      -0.92871550      10.90894507
Si       0.07714756      -0.74017552      11.63752416
Si      -7.84791041       3.45180972      13.68042487
Si       4.83359609       1.33301237      -0.45834844
Si       4.59035794      -0.49489832      -1.23144856
Si      -1.99409992       2.02382112      10.32671324
Si      -2.61400083      -0.87043512      11.19921322
Si      -5.52629583       2.97744605       8.87746078
Si       1.09996625       0.61616276       4.28197998
Si      -4.65785598       5.47800217       7.29360905
Si      -4.85388182      -0.24474857       9.14933635
Si      -2.00189604       6.89615729       0.43458221
Si       0.48285142       1.83705440       5.72927985
Si       0.72562985       6.97313370       0.16772724
Si      -1.38492463       0.51123503       4.19331391
Si       3.13162594      -4.44357806       6.64238137
Si      -0.16321787       2.06530400       3.85610610
Si      -5.25259162       4.94515271       9.11749104
Si      -4.03079563       5.31594457       5.40228759
Si      -3.06001490       0.41903537       9.77091589
22
Lattice="7.535301131358095 -2.400477089869633 -2.8828293981584228 -5.063767847773003 10.601646928079616 0.4394312169828 -5.944960725513349 -1.439220157671364 13.56007205006512" Properties=species:S:1:pos:R:3 unique_starting_index=18 config_type=initial n_minim_iter=5 stress="0.007897853700787803 0.014880543922035574 2.119053466890731e-06 0.014880543922035574 0.011111584120135853 0.0025625811747649377 2.119053466890731e-06 0.0025625811747649377 -0.0020778548286774948" pbc="T T T"
Si      -0.69964804       8.35279901       0.12701881
Si      -0.76444916       1.23228608       7.18026580
Si      -5.29730532      -0.90565009      10.91869271
Si       0.07931073      -0.70612527      11.65392156
Si      -7.84264928       3.47784343      13.70562004
Si       4.83923900       1.34025524      -0.45150416
Si       4.59190568      -0.49225759      -1.23515531
Si      -1.98659402       2.04743486      10.34586791
Si      -2.61096534      -0.83882572      11.21146101
Si      -5.52074660       2.99186403       8.89709476
Si       1.10212755       0.62866205       4.28830696
Si      -4.64991274       5.48381937       7.31582542
Si      -4.85150173      -0.22450518       9.16077274
Si      -1.99268155       6.88515426       0.45513394
Si       0.48794732       1.85447369       5.74370080
Si       0.73748406       6.96641331       0.18901121
Si      -1.38463918       0.51961920       4.20033182
Si       3.12867094      -4.41398009       6.64018316
Si      -0.15707442       2.07346354       3.86822977
Si      -5.24564755       4.95662266       9.14273654
Si      -4.02351084       5.31899333       5.42601178
Si      -3.05950259       0.44227936       9.78472102
22
Lattice="7.539881785418073 -2.4054704875422117 -2.883796568861827 -5.072815730584138 10.602537693744127 0.44169778679453303 -5.942136717478824 -1.430529564253986 13.57157807616418" Properties=species:S:1:pos:R:3 unique_starting_index=18 config_type=initial n_minim_iter=6 stress="0.014037293220447961 0.004929906296616948 0.002440919863590793 0.004929906296616948 0.01695129116721137 0.00585454054415494 0.002440919863590793 0.00585454054415494 0.004309460131520869" pbc="T T T"
Si      -0.70507220       8.35187409       0.12967746
Si      -0.76286425       1.23499741       7.18822088
Si      -5.29521043      -0.89900328      10.92741704
Si       0.08394581      -0.70179056      11.66663111
Si      -7.84342683       3.48698414      13.71790331
Si       4.84111638       1.33735100      -0.44916221
Si       4.59428208      -0.49510360      -1.23554999
Si      -1.98475979       2.05141165      10.35627132
Si      -2.60692028      -0.83214334      11.22181772
Si      -5.52182271       2.99736736       8.90548388
Si       1.10353394       0.62908354       4.29282957
Si      -4.65323888       5.48731389       7.32332430
Si      -4.84963366      -0.21796101       9.16881148
Si      -1.99792858       6.88468679       0.45758385
Si       0.48891657       1.85637509       5.75128135
Si       0.73402896       6.96431645       0.19219281
Si      -1.38437367       0.52165496       4.20439585
Si       3.13545363      -4.41237634       6.64684531
Si      -0.15652719       2.07408306       3.87321239
Si      -5.24819890       4.96201854       9.15213349
Si      -4.02683147       5.32198004       5.43237849
Si      -3.05812830       0.44785469       9.79407379
22
Lattice="7.534718565999957 -2.3924520592448233 -2.8870855156854365 -5.06248985318253 10.581136338943635 0.43012792131751476 -5.937556984853025 -1.447678706850028 13.608901884314283" Properties=species:S:1:pos:R:3 unique_starting_index=18 config_type=initial n_minim_iter=7 stress="0.006930708585265518 0.005617550898674621 0.00046373744580621837 0.005617550898674621 0.008833779059167112 0.0023381483202870646 0.00046373744580621837 0.0023381483202870646 0.024037365914994797" pbc="T T T"
Si      -0.69767565       8.33826310       0.12051553
Si      -0.75957825       1.22460787       7.20704729
Si      -5.29017590      -0.91604688      10.95537288
Si       0.08581319      -0.71178539      11.70155311
Si      -7.83231881       3.46079773      13.74837849
Si       4.84086368       1.34035967      -0.44905022
Si       4.59099979      -0.48746440      -1.23962862
Si      -1.97942222       2.03355225      10.37995103
Si      -2.60094558      -0.84129247      11.25231413
Si      -5.51476206       2.97673976       8.92520247
Si       1.10217230       0.62408716       4.30296762
Si      -4.64652156       5.46419578       7.33558565
Si      -4.84217973      -0.23007379       9.19427917
Si      -1.99233877       6.87068371       0.45217688
Si       0.49147327       1.84802402       5.76740573
Si       0.73967204       6.95342472       0.18630906
Si      -1.38347678       0.51453167       4.21492859
Si       3.13183722      -4.40951198       6.67068750
Si      -0.15239674       2.06476745       3.88234087
Si      -5.24095505       4.94140280       9.17064413
Si      -4.01939800       5.30352009       5.44107185
Si      -3.05572606       0.43575767       9.82003703
22
Lattice="7.528738086930514 -2.385541822709892 -2.8823958980842157 -5.051856250970024 10.573773650958856 0.4273168103781465 -5.933080470736003 -1.4534861758871622 13.594505667457147" Properties=species:S:1:pos:R:3 unique_starting_index=18 config_type=initial n_minim_iter=8 stress="-0.012253974125078497 0.00431113408374834 -0.00335834544775235 0.00431113408374834 0.013585433615343711 0.0051194212329884565 -0.00335834544775235 0.0051194212329884565 0.0012531845056675689" pbc="T T T"
Si      -0.69072182       8.33591941       0.11864173
Si      -0.75606203       1.22292927       7.19971632
Si      -5.28470742      -0.92511646      10.94104040
Si       0.08629864      -0.71018096      11.69335469
Si      -7.81961045       3.45191598      13.73045336
Si       4.84005359       1.34477978      -0.44534915
Si       4.58623620      -0.48034543      -1.24155371
Si      -1.97449422       2.02737087      10.36555027
Si      -2.59354968      -0.83809233      11.23972849
Si      -5.50770246       2.96652584       8.91452241
Si       1.09820930       0.62398845       4.29719240
Si      -4.64067516       5.45326701       7.32554115
Si      -4.83305246      -0.23292386       9.18625728
Si      -1.98729592       6.86567266       0.45269411
Si       0.49210395       1.84716678       5.76394608
Si       0.74550415       6.95089445       0.18691037
Si      -1.38327488       0.51205697       4.21013252
Si       3.12698653      -4.40599238       6.66491601
Si      -0.14752723       2.06001592       3.88117365
Si      -5.23447469       4.93780158       9.16001234
Si      -4.01178503       5.29648224       5.43518077
Si      -3.05426398       0.43470437       9.81038491
22
Lattice="7.5550086564977175 -2.379724758211053 -2.8971176353177044 -5.063764419380225 10.555441765723751 0.43860754640977107 -5.97414727755304 -1.450193820553432 13.611114270252074" Properties=species:S:1:pos:R:3 unique_starting_index=18 config_type=initial n_minim_iter=9 stress="0.0019065639745140506 0.0028761783912253022 -0.011262366442700563 0.0028761783912253022 0.006733493006888027 0.004090880100404183 -0.011262366442700563 0.004090880100404183 0.008894549352706279" pbc="T T T"
Si      -0.69015946       8.32484168       0.12085892
Si      -0.76968537       1.22236841       7.20561588
Si      -5.31835071      -0.92735439      10.95318451
Si       0.06519662      -0.70289377      11.70332097
Si      -7.86031146       3.44658214      13.74794654
Si       4.85607840       1.34523225      -0.45030086
Si       4.59988640      -0.47502739      -1.25376134
Si      -1.99524350       2.02401892      10.37082726
Si      -2.61587524      -0.82603101      11.24708799
Si      -5.53855401       2.95973869       8.92827834
Si       1.08764934       0.62505822       4.29743328
Si      -4.66747958       5.43917004       7.33875618
Si      -4.86130529      -0.23156231       9.19990960
Si      -1.99324872       6.85367757       0.46096574
Si       0.48634456       1.84499469       5.76740872
Si       0.75132951       6.93884024       0.18947551
Si      -1.39598953       0.51168297       4.21412840
Si       3.12255259      -4.39680081       6.66031925
Si      -0.15152924       2.05248741       3.88836578
Si      -5.26845952       4.93161259       9.17379274
Si      -4.02972846       5.28585710       5.44562964
Si      -3.07896037       0.43874074       9.82273057
22
Lattice="7.548002155261157 -2.3787658257563136 -2.8828184857052697 -5.060286638811167 10.557316012302657 0.4280779020519823 -5.9446429321254834 -1.4516766585680214 13.607782528987837" Properties=species:S:1:pos:R:3 unique_starting_index=18 config_type=initial n_minim_iter=10 stress="-0.002923953663347439 0.0014173476606605788 0.004132324256110822 0.0014173476606605788 0.010977370805312553 0.002247551118779568 0.004132324256110822 0.002247551118779568 0.000453884798660622" pbc="T T T"
Si      -0.68660095       8.32920645       0.11795748
Si      -0.75113491       1.22347210       7.20785967
Si      -5.29403615      -0.93505184      10.94679894
Si       0.08929940      -0.69914837      11.71946195
Si      -7.82334921       3.44728165      13.73370413
Si       4.85603222       1.34751097      -0.43533986
Si       4.59501766      -0.46991721      -1.24897877
Si      -1.96559472       2.02441670      10.36935378
Si      -2.58561607      -0.81150244      11.24408037
Si      -5.51970929       2.95839780       8.92119164
Si       1.08651669       0.62657449       4.30357475
Si      -4.65301274       5.43158596       7.33394534
Si      -4.84016582      -0.23219522       9.19680476
Si      -1.99343851       6.85515628       0.46189731
Si       0.50205181       1.84223201       5.77686706
Si       0.75419241       6.94016703       0.19450456
Si      -1.38881171       0.51222922       4.21290929
Si       3.13522533      -4.39871642       6.66844594
Si      -0.14074617       2.04497610       3.89615972
Si      -5.25503780       4.93235614       9.16711682
Si      -4.01471613       5.28324040       5.44085590
Si      -3.05709282       0.44106220       9.82544569
22
Lattice="7.58416181314269 -2.3776993481233553 -2.905477924131329 -5.08544033374754 10.53747600324886 0.44223946745271836 -6.0041737610139965 -1.4461321674392298 13.629859913197253" Properties=species:S:1:pos:R:3 unique_starting_index=18 config_type=initial n_minim_iter=11 stress="-0.0037774997588938836 0.006074656111908907 0.0027648751267571586 0.006074656111908907 -0.0011428514698224928 0.0030386330689955465 0.0027648751267571586 0.0030386330689955465 0.002505002945937482" pbc="T T T"
Si      -0.68916588       8.31095540       0.11733417
Si      -0.77285557       1.22130799       7.21161368
Si      -5.34415441      -0.94036613      10.96264377
Si       0.05541471      -0.69112778      11.73353988
Si      -7.88316564       3.44306519      13.75123584
Si       4.87378049       1.33996489      -0.44387625
Si       4.61241964      -0.46513071      -1.26506005
Si      -1.99131827       2.02508361      10.37388469
Si      -2.62073160      -0.78747461      11.24673574
Si      -5.56647124       2.95380211       8.93811596
Si       1.06421716       0.62231897       4.30180601
Si      -4.69487315       5.41189806       7.34868338
Si      -4.88206149      -0.22929421       9.21574346
Si      -2.00895454       6.84381612       0.47427160
Si       0.48321188       1.83522730       5.78328596
Si       0.74963761       6.92740130       0.19641281
Si      -1.41049373       0.51163243       4.21680136
Si       3.12879539      -4.39401163       6.65740520
Si      -0.15238090       2.03123392       3.90405400
Si      -5.31081248       4.92345225       9.18327871
Si      -4.04528761       5.26919914       5.45559118
Si      -3.10006137       0.44062125       9.83896955
22
Lattice="7.636170947147089 -2.4002495015452294 -2.9518509846504566 -5.147837323916797 10.523463839036513 0.4729967386373106 -6.094365230023676 -1.4152589782223994 13.683492882366235" Properties=species:S:1:pos:R:3 unique_starting_index=18 config_type=initial n_minim_iter=12 stress="-0.0007101268391654115 -0.005628421871418422 -0.004905658189970499 -0.005628421871418422 -0.0033734808168734876 -0.0008293713487318858 -0.004905658189970499 -0.0008293713487318858 0.011042916152841744" pbc="T T T"
Si      -0.72185336       8.28221951       0.11840874
Si      -0.81794658       1.22104672       7.22849134
Si      -5.42106272      -0.93341919      11.00228302
Si      -0.00454753      -0.67279674      11.77100774
Si      -7.98347779       3.46709844      13.79581869
Si       4.88920967       1.31807064      -0.45691080
Si       4.62676693      -0.47952161      -1.29754644
Si      -2.04070803       2.02983827      10.39178096
Si      -2.67728363      -0.73707751      11.26397721
Si      -5.64990090       2.96613689       8.97736962
Si       1.01891459       0.61084168       4.30690521
Si      -4.76777977       5.39815937       7.38027672
Si      -4.95247037      -0.20989748       9.25863919
Si      -2.04512026       6.84297175       0.49890577
Si       0.43882843       1.81778676       5.79933581
Si       0.71887929       6.90736510       0.20278924
Si      -1.45379870       0.51132982       4.22899353
Si       3.11965466      -4.39581892       6.64217013
Si      -0.18249168       2.01854342       3.91377656
Si      -5.40428370       4.93519830       9.22662784
Si      -4.10754318       5.26060959       5.49539199
Si      -3.16397410       0.46151669       9.87493222
22
Lattice="7.698260686405489 -2.4295341399467922 -2.9724099762655314 -5.232054901388665 10.49817866443228 0.49488243988644426 -6.1614188721047976 -1.3685744858282287 13.680191134347341" Properties=species:S:1:pos:R:3 unique_starting_index=18 config_type=initial n_minim_iter=13 stress="-0.007863423536013313 -0.019842913147798003 0.0009552993172537809 -0.019842913147798003 -0.013246941111906059 -0.007212237211673306 0.0009552993172537809 -0.007212237211673306 -0.016604306699213256" pbc="T T T"
Si      -0.76546931       8.24427256       0.11854493
Si      -0.85364644       1.21974912       7.22712187
Si      -5.48052211      -0.91636247      10.99448060
Si      -0.04137117      -0.65009070      11.77771821
Si      -8.06497860       3.50401630      13.77869571
Si       4.91076961       1.28629162      -0.45483328
Si       4.64813900      -0.49261484      -1.31903426
Si      -2.06603019       2.04249688      10.37354675
Si      -2.70861401      -0.67803760      11.24141919
Si      -5.72765838       2.98370433       8.97560351
Si       0.98249861       0.59680639       4.30633489
Si      -4.83974467       5.38114110       7.39184179
Si      -5.00920626      -0.17998114       9.26289274
Si      -2.09268301       6.83046266       0.52201954
Si       0.41063471       1.79659133       5.79422389
Si       0.68185455       6.87445074       0.21492757
Si      -1.49576861       0.51029197       4.22493724
Si       3.13842133      -4.39196564       6.61160557
Si      -0.20880281       2.00970595       3.90676096
Si      -5.48608490       4.95435139       9.22204066
Si      -4.16972997       5.24845997       5.50953359
Si      -3.21589877       0.48823487       9.86905804
22
Lattice="7.753942432935558 -2.443911690629628 -3.014957804206194 -5.2868152573248315 10.477425002780995 0.5268975108044353 -6.238908130414017 -1.33442616402356 13.7575051355085" Properties=species:S:1:pos:R:3 unique_starting_index=18 config_type=initial n_minim_iter=14 stress="0.020806684466983156 -0.01649445271467823 0.0032076673746402407 -0.01649445271467823 -0.0019705288377883513 -0.008913705576884244 0.0032076673746402407 -0.008913705576884244 -0.0009366253493689515" pbc="T T T"
Si      -0.78744313       8.22942237       0.12075368
Si      -0.88738006       1.21962398       7.26307844
Si      -5.54498473      -0.91508041      11.05321575
Si      -0.08624941      -0.60808696      11.85428032
Si      -8.13268697       3.54204537      13.84827942
Si       4.93489901       1.26665144      -0.45266222
Si       4.65864378      -0.48382937      -1.35573617
Si      -2.09018959       2.05534127      10.40991205
Si      -2.74756693      -0.62688401      11.28832755
Si      -5.81033773       3.00182821       9.02615323
Si       0.94505645       0.57209307       4.33195141
Si      -4.88907299       5.36231144       7.44046336
Si      -5.07405595      -0.15985540       9.32498557
Si      -2.10942891       6.81211984       0.56239247
Si       0.38456268       1.78095325       5.82114870
Si       0.67154256       6.85053481       0.23596862
Si      -1.53937451       0.51502276       4.23999886
Si       3.14451854      -4.38673121       6.61590411
Si      -0.24870461       2.00341944       3.93083593
Si      -5.56357599       4.96966602       9.27539545
Si      -4.22134111       5.23133883       5.56645901
Si      -3.27789771       0.51675960       9.91025078
22
Lattice="7.7509823103651145 -2.4559077982857924 -3.035925891655451 -5.295435165516575 10.481733163286496 0.5430401539138515 -6.236561636122292 -1.31154597252502 13.830766091527526" Properties=species:S:1:pos:R:3 unique_starting_index=18 config_type=initial n_minim_iter=15 stress="0.02308449708654295 0.001969042570919416 -0.001228433808361091 0.001969042570919416 0.00798332932564808 -0.0038396612374557494 -0.001228433808361091 -0.0038396612374557494 0.00827543148039553" pbc="T T T"
Si      -0.78311839       8.23594451       0.11970413
Si      -0.88980016       1.22144243       7.30310561
Si      -5.53817484      -0.92306721      11.10661164
Si      -0.09475381      -0.56657240      11.94447847
Si      -8.10344218       3.58292041      13.91002987
Si       4.92952803       1.25860636      -0.43379409
Si       4.64152727      -0.47546470      -1.37588520
Si      -2.06929912       2.06568999      10.45019421
Si      -2.74126862      -0.58110207      11.33796699
Si      -5.82055852       3.01844335       9.06980423
Si       0.91931001       0.54671940       4.36456859
Si      -4.88242215       5.35311160       7.48857784
Si      -5.08338150      -0.14731914       9.38089409
Si      -2.10098061       6.80816529       0.59942874
Si       0.37313753       1.78100230       5.84906982
Si       0.65868253       6.85591888       0.26028025
Si      -1.56292933       0.51711799       4.25422805
Si       3.14900963      -4.38858730       6.64104288
Si      -0.26939687       2.00730320       3.96672853
Si      -5.57600625       4.99206975       9.31893935
Si      -4.22202655       5.22361591       5.61185307
Si      -3.28109349       0.55057289       9.95168867
22
Lattice="7.728697365054448 -2.4811540673759347 -3.051004734410712 -5.309419759258487 10.504579850338006 0.543753119185369 -6.20100996883162 -1.2927635872083187 13.919688075809725" Properties=species:S:1:pos:R:3 unique_starting_index=18 config_type=initial n_minim_iter=16 stress="0.021093076360293436 -0.004627237330295527 -0.004852647151566453 -0.004627237330295527 0.03216526149447076 -0.004871978965843388 -0.004852647151566453 -0.004871978965843388 0.015415824027187854" pbc="T T T"
Si      -0.79738668       8.25531445       0.10921466
Si      -0.88314108       1.21808011       7.34888236
Si      -5.49956045      -0.93163505      11.17220808
Si      -0.08885428      -0.53273876      12.04689075
Si      -8.04634406       3.61736648      13.98476291
Si       4.90702719       1.24708016      -0.41078835
Si       4.61210562      -0.48335988      -1.39074092
Si      -2.03560046       2.07155760      10.50449713
Si      -2.71961042      -0.54531489      11.40267117
Si      -5.80910383       3.04248741       9.11971337
Si       0.89392619       0.52136009       4.40891595
Si      -4.87033307       5.35007736       7.53840916
Si      -5.06342789      -0.13308134       9.44738247
Si      -2.09895361       6.81759808       0.62746519
Si       0.36262912       1.77379065       5.87907937
Si       0.63468752       6.86341017       0.27892049
Si      -1.58117309       0.51543586       4.27161191
Si       3.16120101      -4.40424585       6.68685996
Si      -0.28622306       2.01300334       4.00496267
Si      -5.57503408       5.01371758       9.36787114
Si      -4.21499665       5.22220482       5.65148388
Si      -3.27243235       0.57828412      10.00039217
22
Lattice="7.693100827600721 -2.4829503100371504 -3.054073793339968 -5.294313564758229 10.48210275369417 0.546565385278162 -6.139072086201656 -1.268567892065102 14.000309548075856" Properties=species:S:1:pos:R:3 unique_starting_index=18 config_type=initial n_minim_iter=17 stress="0.01918333037832757 0.004737701894153875 0.011726737948279536 0.004737701894153875 0.03298623542182349 -0.002639984526352884 0.011726737948279536 -0.002639984526352884 0.008178463803992177" pbc="T T T"
Si      -0.79590506       8.24701405       0.10922888
Si      -0.85700238       1.21438582       7.39426190
Si      -5.43234954      -0.93626161      11.23335125
Si      -0.06491055      -0.48320787      12.15370452
Si      -7.95355877       3.63778794      14.05717933
Si       4.88252572       1.23777588      -0.37884393
Si       4.58638376      -0.46528772      -1.39511737
Si      -1.96382653       2.07753341      10.56562613
Si      -2.67809584      -0.50464139      11.46911168
Si      -5.76559322       3.04603400       9.16593627
Si       0.87684057       0.50306741       4.46141048
Si      -4.83217371       5.32367378       7.57891935
Si      -5.03015069      -0.12199120       9.50702910
Si      -2.06781560       6.80443741       0.65935102
Si       0.36730272       1.77308559       5.91372284
Si       0.63158057       6.85177704       0.31112116
Si      -1.59763484       0.50745854       4.28284660
Si       3.18172433      -4.38749567       6.73947427
Si      -0.28745641       2.02307751       4.04199342
Si      -5.54657294       5.01802221       9.42096592
Si      -4.18296379       5.19757007       5.69295801
Si      -3.23646974       0.61161088      10.04254376
22
Lattice="7.69635712880356 -2.498386342400273 -3.0765276772382313 -5.320129671691912 10.463891745666418 0.5606674123646137 -6.1517512356059445 -1.2417988017167196 14.049489968519868" Properties=species:S:1:pos:R:3 unique_starting_index=18 config_type=initial n_minim_iter=18 stress="0.021532467166606555 0.0033691617697145636 0.012833278941837157 0.0033691617697145636 0.025271950771945093 0.0009107546927759039 0.012833278941837157 0.0009107546927759039 0.02328836479515367" pbc="T T T"
Si      -0.81119252       8.24048746       0.10306981
Si      -0.87249652       1.19955937       7.41021569
Si      -5.41585456      -0.93470133      11.27416106
Si      -0.08296850      -0.44895903      12.20452866
Si      -7.95713807       3.66844599      14.10540713
Si       4.86256247       1.22281395      -0.36915775
Si       4.57603454      -0.46897829      -1.40759948
Si      -1.94526630       2.07682397      10.59509869
Si      -2.69778053      -0.47596215      11.50330312
Si      -5.78283773       3.04472444       9.19635622
Si       0.84061103       0.48286412       4.49036550
Si      -4.86621740       5.29441838       7.60576738
Si      -5.05010645      -0.10751580       9.55041275
Si      -2.06091728       6.78294555       0.68562292
Si       0.33961905       1.76591629       5.92219979
Si       0.60723959       6.84075033       0.33556800
Si      -1.62834820       0.51098647       4.26963166
Si       3.19718215      -4.37457367       6.75843261
Si      -0.32791931       2.01537644       4.04848301
Si      -5.57988859       5.03018038       9.45507494
Si      -4.19943236       5.17131037       5.72092849
Si      -3.25086362       0.64536753      10.04958612
22
Lattice="7.725797532469343 -2.5268266597218365 -3.10383386218824 -5.361696301072015 10.500010713389702 0.5827346918468247 -6.207693274947912 -1.2223565730857455 14.0628649351393" Properties=species:S:1:pos:R:3 unique_starting_index=18 config_type=initial n_minim_iter=19 stress="0.011874666570372595 0.006778959564067058 0.00448551656803344 0.006778959564067058 0.02713989471342892 0.00132715183042592 0.00448551656803344 0.00132715183042592 0.02150774833436177" pbc="T T T"
Si      -0.82919321       8.26348330       0.10776919
Si      -0.90567252       1.19044991       7.40310095
Si      -5.43574685      -0.93578096      11.28878287
Si      -0.12570612      -0.42923321      12.21345377
Si      -8.00927698       3.70923203      14.12016186
Si       4.85418855       1.21955949      -0.37028058
Si       4.58390125      -0.46698251      -1.43299920
Si      -1.96322951       2.08362167      10.59237466
Si      -2.74332386      -0.45394421      11.50720890
Si      -5.84083604       3.07868137       9.20965351
Si       0.79970010       0.46695618       4.49357700
Si      -4.92956787       5.29657598       7.61899720
Si      -5.09657120      -0.09175788       9.57132458
Si      -2.06394097       6.80406808       0.70934867
Si       0.30051415       1.76410073       5.91179150
Si       0.57949039       6.87000469       0.35806161
Si      -1.66986531       0.51446342       4.23937726
Si       3.20589861      -4.38499573       6.74733878
Si      -0.36973125       2.01356453       4.04432158
Si      -5.63992000       5.05603646       9.46513068
Si      -4.23899458       5.17299422       5.73649103
Si      -3.29045956       0.68192648      10.03158993
22
Lattice="7.78367969725421 -2.5750989602298944 -3.144370075361113 -5.437126288954775 10.548186210909005 0.6313842877327025 -6.308860770112775 -1.1717028143501556 14.043769319826524" Properties=species:S:1:pos:R:3 unique_starting_index=18 config_type=initial n_minim_iter=20 stress="0.01358641654591807 0.01228615721273098 -0.0006954066418202467 0.01228615721273098 0.029338571928202706 -0.005644135810312827 -0.0006954066418202467 -0.005644135810312827 0.0038023447768980208" pbc="T T T"
Si      -0.85912769       8.30982530       0.11962388
Si      -0.96137055       1.18337460       7.37217768
Si      -5.48173670      -0.92336165      11.28290168
Si      -0.19705380      -0.38187551      12.19262578
Si      -8.10501217       3.78279229      14.11052489
Si       4.84447533       1.20453420      -0.37852912
Si       4.60502995      -0.47135054      -1.45736805
Si      -2.00250517       2.10227348      10.55813137
Si      -2.82115990      -0.39440421      11.47616796
Si      -5.95672788       3.14002429       9.20967099
Si       0.73049206       0.44382324       4.47580539
Si      -5.03086056       5.30984934       7.62502010
Si      -5.17463655      -0.05113482       9.57912111
Si      -2.07825188       6.83109476       0.75397662
Si       0.24453598       1.76474069       5.89421314
Si       0.53415337       6.91475406       0.41120180
Si      -1.74603173       0.51082429       4.16863128
Si       3.21839802      -4.39457540       6.69766383
Si      -0.42822708       2.01444235       4.02703512
Si      -5.75014205       5.11279094       9.46076984
Si      -4.31048819       5.17635366       5.75579075
Si      -3.36099380       0.75075480       9.97858214
22
Lattice="7.795209265192617 -2.6029194334593906 -3.1465973890769585 -5.477713169705446 10.550316738076146 0.6468897127851676 -6.293732976771086 -1.1230578900507537 14.062731082371787" Properties=species:S:1:pos:R:3 unique_starting_index=18 config_type=initial n_minim_iter=21 stress="-0.001023697351937003 -0.0009114788297992462 0.004235178103671572 -0.0009114788297992462 0.0036028531501234528 -0.001803033235435565 0.004235178103671572 -0.001803033235435565 0.001636217704826394" pbc="T T T"
Si      -0.88374129       8.30340265       0.14446199
Si      -0.96285714       1.18508617       7.39097934
Si      -5.45642084      -0.89362906      11.30404924
Si      -0.17822907      -0.35169293      12.22431967
Si      -8.09663373       3.83085564      14.14197244
Si       4.83288990       1.19077435      -0.36906008
Si       4.60941909      -0.48406894      -1.45237578
Si      -1.98563885       2.12208400      10.58342539
Si      -2.80837102      -0.35140659      11.49557716
Si      -5.97597429       3.17202812       9.22826029
Si       0.71174530       0.44897541       4.48247267
Si      -5.04293022       5.32792955       7.64164128
Si      -5.16390927      -0.01348929       9.59748575
Si      -2.08710724       6.82987079       0.76276310
Si       0.24416500       1.76889119       5.90297266
Si       0.50355659       6.91573671       0.44470449
Si      -1.76081675       0.51764213       4.13968335
Si       3.24735329      -4.38526227       6.70758779
Si      -0.42913496       2.00389155       4.04145368
Si      -5.76318824       5.14803635       9.48114387
Si      -4.32447589       5.17794824       5.77676807
Si      -3.35429611       0.78674457       9.98329599
