24
Lattice="10.323764302780653 -3.645544597172342e-14 3.7044622892034944e-14 5.161882151390358 8.940642148890966 -4.674033951365764e-14 5.161882151390304 2.980214049630374 8.824612737104019" Properties=species:S:1:pos:R:3 unique_starting_index=24 config_type=initial n_minim_iter=1 energy=-3916.7152255826113 free_energy=-3916.7152255826113 pbc="T T T"
Si      11.14849359       4.74540901       8.86488995
Si      10.96363603       7.28217416       8.86488995
Si       8.85916174       5.85370024       8.86488995
Si      11.54607549       4.47263005       6.90836067
Si      11.00107859       7.76287966       6.90836067
Si       8.42413729       5.64577370       6.90836067
Si      12.97685057       4.47620519       1.35348141
Si      10.28259488       9.00017967       1.35348141
Si       7.71184591       4.40489856       1.35348141
Si      11.50676653       7.53660318       1.96100649
Si       8.36725450       6.19685055       1.96100649
Si      11.09727033       4.14782969       1.96100649
Si      12.06674094       9.43384987       7.13848143
Si       6.44420346       5.73317926       7.13848143
Si      12.46034696       2.71425428       7.13848143
Si      14.15650746       3.73989615       6.94535929
Si      10.33042877      10.38994702       6.94535929
Si       6.48435513       3.75144024       6.94535929
Si      11.91181253      11.01378669       5.89704550
Si       5.15340225       4.80903891       5.89704550
Si      13.90607659       2.05845781       5.89704550
Si       5.56785588       1.89620348       2.00396620
Si       5.89767495       3.87380290       2.00396620
Si       4.02011408       3.17063489       2.00396620
24
Lattice="10.340544605912896 -3.700755684600672e-14 3.710852020921702e-14 5.170272302956481 8.955174317686689 -4.650233100221625e-14 5.170272302956427 2.9850581058956167 8.822508248988726" Properties=species:S:1:pos:R:3 unique_starting_index=24 config_type=initial n_minim_iter=2 stress="0.0090699232040203 -5.928245563527148e-15 5.7029330946034365e-15 -5.928245563527148e-15 0.009069923203996912 -2.534238685634776e-15 5.7029330946034365e-15 -2.534238685634776e-15 0.00930562642122693" pbc="T T T"
Si      11.16669966       4.75311083       8.86280433
Si      10.98142363       7.29409017       8.86280433
Si       8.87350898       5.86314675       8.86280433
Si      11.56472070       4.48016417       6.90667182
Si      11.01879185       7.77525983       6.90667182
Si       8.43811973       5.65492375       6.90667182
Si      12.99775412       4.48362423       1.35314089
Si      10.29927864       9.01457315       1.35314089
Si       7.72459951       4.41215037       1.35314089
Si      11.52545460       7.54888769       1.96039904
Si       8.38083237       6.20689263       1.96039904
Si      11.11534530       4.15456742       1.96039904
Si      12.08667685       9.44959890       7.13668206
Si       6.45415705       5.74256975       7.13668206
Si      12.48079837       2.71817910       7.13668206
Si      14.17942094       3.74609320       6.94393284
Si      10.34716584      10.40669215       6.94393284
Si       6.49504549       3.75756240       6.94393284
Si      11.93142731      11.03137753       5.89565930
Si       5.16192134       4.81723039       5.89565930
Si      13.92828361       2.06173982       5.89565930
Si       5.57685414       1.89987864       2.00350571
Si       5.90677334       3.87975804       2.00350571
Si       4.02718788       3.17553675       2.00350571
24
Lattice="10.341566726620437 -3.8763304380777323e-14 3.7255255742677554e-14 5.170783363310255 8.956059500185157 -4.6553430594157843e-14 5.1707833633102 2.985353166728438 8.792651685597443" Properties=species:S:1:pos:R:3 unique_starting_index=24 config_type=initial n_minim_iter=3 stress="0.009620329017227034 -6.628297708220003e-15 4.071045375624552e-15 -6.628297708220003e-15 0.009620329017191499 -7.008790898340159e-15 4.071045375624552e-15 -7.008790898340159e-15 -0.014321738304990415" pbc="T T T"
Si      11.16827816       4.75351073       8.83295468
Si      10.98233229       7.29525725       8.83295468
Si       8.87408817       5.86335014       8.83295468
Si      11.56537596       4.48172594       6.88310494
Si      11.01915592       7.77504642       6.88310494
Si       8.44016675       5.65534575       6.88310494
Si      12.99828903       4.48412079       1.34891940
Si      10.30062539       9.01478811       1.34891940
Si       7.72578421       4.41320921       1.34891940
Si      11.52624344       7.55012655       1.95287148
Si       8.38140931       6.20695636       1.95287148
Si      11.11704588       4.15503520       1.95287148
Si      12.08938900       9.45252392       7.11195958
Si       6.45231207       5.74345603       7.11195958
Si      12.48299756       2.71613816       7.11195958
Si      14.18032977       3.74683661       6.92136597
Si      10.34811185      10.40710751       6.92136597
Si       6.49625701       3.75817399       6.92136597
Si      11.93360067      11.03080210       5.87615283
Si       5.16337725       4.81940029       5.87615283
Si      13.92772072       2.06191572       5.87615283
Si       5.57662589       1.90306049       1.99650505
Si       5.90515402       3.87796944       1.99650505
Si       4.03056864       3.17502868       1.99650505
24
Lattice="10.338215423941229 -4.2418131138489246e-14 3.663472093582588e-14 5.169107711970649 8.953157186929182 -4.591012914651745e-14 5.169107711970593 2.984385728976445 8.807627346957833" Properties=species:S:1:pos:R:3 unique_starting_index=24 config_type=initial n_minim_iter=4 stress="0.008662222244295349 5.640785772154796e-16 1.5081135113675088e-15 5.640785772154796e-16 0.008662222244247926 -6.145079101809292e-15 1.5081135113675088e-15 -6.145079101809292e-15 0.002025415106701065" pbc="T T T"
Si      11.16505224       4.75192177       8.84807833
Si      10.97861873       7.29325799       8.84807833
Si       8.87097376       5.86113372       8.84807833
Si      11.56173919       4.48027953       6.89449240
Si      11.01552433       7.77262009       6.89449240
Si       8.43738120       5.65341386       6.89449240
Si      12.99386158       4.48252363       1.35154774
Si      10.29751969       9.01175241       1.35154774
Si       7.72326346       4.41203745       1.35154774
Si      11.52233209       7.54793030       1.95553330
Si       8.37856439       6.20466716       1.95553330
Si      11.11374824       4.15371603       1.95553330
Si      12.08618272       9.45013422       7.12359390
Si       6.44928215       5.74187417       7.12359390
Si      12.47917985       2.71430510       7.12359390
Si      14.17539869       3.74609731       6.93397234
Si      10.34451503      10.40320672       6.93397234
Si       6.49473100       3.75700945       6.93397234
Si      11.93065434      11.02610209       5.88635690
Si       5.16221813       4.81919870       5.88635690
Si      13.92177225       2.06101269       5.88635690
Si       5.57445095       1.90348171       1.99996057
Si       5.90252540       3.87587528       1.99996057
Si       4.03034524       3.17379930       1.99996057
24
Lattice="10.339025299493203 -4.508778242651269e-14 3.6635205256281396e-14 5.169512649746641 8.9538585597311 -4.592768375712255e-14 5.169512649746583 2.984619519910417 8.801320626337816" Properties=species:S:1:pos:R:3 unique_starting_index=24 config_type=initial n_minim_iter=5 stress="0.01544330912095429 1.1936218228084712e-14 -8.200205632162127e-16 1.1936218228084712e-14 0.015443309120920434 -2.879950916227362e-15 -8.200205632162127e-16 -2.879950916227362e-15 -0.002927856941117019" pbc="T T T"
Si      11.16753394       4.75208901       8.84219268
Si      10.97885279       7.29532359       8.84219268
Si       8.87068762       5.86030363       8.84219268
Si      11.56373230       4.47934690       6.88867670
Si      11.01695521       7.77481249       6.88867670
Si       8.43638684       5.65355684       6.88867670
Si      12.99522542       4.48200342       1.35191119
Si      10.29890804       9.01319364       1.35191119
Si       7.72294089       4.41251918       1.35191119
Si      11.52303337       7.54894141       1.95162356
Si       8.37895785       6.20476892       1.95162356
Si      11.11508313       4.15400590       1.95162356
Si      12.08932073       9.45209159       7.11653607
Si       6.44763777       5.74361308       7.11653607
Si      12.48011585       2.71201157       7.11653607
Si      14.17585556       3.74814617       6.93121025
Si      10.34413199      10.40257795       6.93121025
Si       6.49708680       3.75699211       6.93121025
Si      11.93439627      11.02328366       5.88393734
Si       5.16440775       4.82384852       5.88393734
Si      13.91827033       2.06058405       5.88393734
Si       5.57524943       1.90218454       1.99809418
Si       5.90405942       3.87721537       1.99809418
Si       4.02922755       3.17445776       1.99809418
24
Lattice="10.339690082842942 -4.823619406607369e-14 3.666692132462925e-14 5.169845041421512 8.954434278999985 -4.596995665769398e-14 5.1698450414214525 2.984811426333376 8.793863007614217" Properties=species:S:1:pos:R:3 unique_starting_index=24 config_type=initial n_minim_iter=6 stress="0.0015885296812027066 3.1018474980869984e-14 -2.244474573955582e-15 3.1018474980869984e-14 0.0015885296811609926 5.056885757906607e-15 -2.244474573955582e-15 5.056885757906607e-15 -0.012731688220826879" pbc="T T T"
Si      11.17091103       4.75200098       8.83487092
Si      10.97857005       7.29829225       8.83487092
Si       8.86958762       5.85857444       8.83487092
Si      11.56659763       4.47663982       6.88191174
Si      11.01919651       7.77864747       6.88191174
Si       8.43327456       5.65358038       6.88191174
Si      12.99680917       4.48281795       1.35152065
Si      10.29874032       9.01415793       1.35152065
Si       7.72351921       4.41189178       1.35152065
Si      11.52466330       7.54862380       1.94659227
Si       8.37974751       6.20633929       1.94659227
Si      11.11465789       4.15390458       1.94659227
Si      12.09317898       9.45120814       7.10912112
Si       6.44780330       5.74739615       7.10912112
Si      12.47808642       2.71026339       7.10912112
Si      14.17736202       3.75017623       6.92581735
Si      10.34295024      10.40286756       6.92581735
Si       6.49875644       3.75582388       6.92581735
Si      11.93665442      11.02211268       5.88289257
Si       5.16562234       4.82638962       5.88289257
Si      13.91679194       2.06036536       5.88289257
Si       5.57618226       1.90361087       1.99674519
Si       5.90302255       3.87731006       1.99674519
Si       4.03032877       3.17351246       1.99674519
24
Lattice="10.341959605297273 -5.372830263071991e-14 3.663216596977188e-14 5.170979802648682 8.956399743099894 -4.602994259552589e-14 5.1709798026486204 2.985466581033343 8.809505162426728" Properties=species:S:1:pos:R:3 unique_starting_index=24 config_type=initial n_minim_iter=7 stress="0.016210595319158687 1.9730374852704466e-14 -4.783780849023129e-16 1.9730374852704466e-14 0.016210595319130994 3.957555883010297e-15 -4.783780849023129e-16 3.957555883010297e-15 -0.0037392912176920485" pbc="T T T"
Si      11.17912461       4.75207917       8.85030857
Si      10.97893459       7.30536632       8.85030857
Si       8.86781807       5.85535311       8.85030857
Si      11.57055464       4.47687442       6.89203367
Si      11.02155388       7.78195705       6.89203367
Si       8.43376874       5.65396713       6.89203367
Si      13.00177732       4.48319774       1.35663819
Si      10.30046638       9.01827058       1.35663819
Si       7.72363357       4.41133027       1.35663819
Si      11.52835497       7.54937988       1.94257856
Si       8.38178593       6.20915833       1.94257856
Si      11.11573636       4.15426038       1.94257856
Si      12.10258610       9.45232294       7.12288984
Si       6.44667334       5.75498555       7.12288984
Si      12.47661783       2.70549011       7.12288984
Si      14.17827097       3.75022526       6.93769791
Si      10.34699235      10.40363021       6.93769791
Si       6.50061395       3.75894312       6.93769791
Si      11.93930030      11.02482398       5.89976233
Si       5.16649039       4.82732538       5.89976233
Si      13.92008658       2.06064924       5.89976233
Si       5.57836640       1.90385175       2.00036637
Si       5.90399139       3.87908115       2.00036637
Si       4.03058006       3.17346596       2.00036637
24
Lattice="10.343191872516453 -7.412317598831761e-14 3.664570602553175e-14 5.171595936258291 8.957466917815946 -4.601435556450447e-14 5.171595936258216 2.9858223059386875 8.816698409077127" Properties=species:S:1:pos:R:3 unique_starting_index=24 config_type=initial n_minim_iter=8 stress="-0.009272890814262144 2.323097825133677e-14 -3.012127846330097e-15 2.323097825133677e-14 -0.009272890814263114 4.860015681304558e-15 -3.012127846330097e-15 4.860015681304558e-15 0.015315794250083862" pbc="T T T"
Si      11.21054654       4.74714183       8.85678727
Si      10.96996402       7.33504718       8.85678727
Si       8.84906350       5.83274393       8.85678727
Si      11.58083419       4.46882113       6.89089881
Si      11.02585300       7.79488604       6.89089881
Si       8.42288689       5.65122578       6.89089881
Si      13.00924011       4.48571235       1.36958897
Si      10.29702181       9.02347625       1.36958897
Si       7.72331215       4.40574435       1.36958897
Si      11.53589431       7.54557304       1.90495633
Si       8.38377762       6.21759101       1.90495633
Si      11.10990214       4.15176890       1.90495633
Si      12.12153448       9.44545421       7.13706269
Si       6.44561218       5.77482969       7.13706269
Si      12.46242741       2.69464905       7.13706269
Si      14.15391469       3.74494211       6.94882606
Si      10.36621036      10.38517863       6.94882606
Si       6.50944902       3.78481220       6.94882606
Si      11.94846289      11.03557313       5.92728100
Si       5.15506459       4.82988583       5.92728100
Si      13.92604659       2.04947398       5.92728100
Si       5.58820794       1.90681367       2.00035400
Si       5.89773780       3.88612320       2.00035400
Si       4.02884053       3.16452916       2.00035400
24
Lattice="10.340805445974162 -8.600478476671556e-14 3.662847987284456e-14 5.1704027229871565 8.955400211806051 -4.6005662121461894e-14 5.170402722987074 2.985133403935385 8.81615155595928" Properties=species:S:1:pos:R:3 unique_starting_index=24 config_type=initial n_minim_iter=9 stress="-0.012080412692589235 1.9913408593613905e-14 -1.4528664514277098e-14 1.9913408593613905e-14 -0.012080412692607687 2.0560970372133068e-16 -1.4528664514277098e-14 2.0560970372133068e-16 0.016519326012999866" pbc="T T T"
Si      11.22772755       4.74111885       8.85520188
Si      10.96181672       7.35293786       8.85520188
Si       8.83287053       5.81674282       8.85520188
Si      11.58183349       4.46455920       6.88640779
Si      11.02427143       7.79788243       6.88640779
Si       8.41630986       5.64835791       6.88640779
Si      13.01043534       4.48496290       1.37800838
Si      10.29230038       9.02488607       1.37800838
Si       7.71967907       4.40095056       1.37800838
Si      11.53648405       7.54104764       1.87983961
Si       8.38262901       6.22036445       1.87983961
Si      11.10330173       4.14938745       1.87983961
Si      12.12975956       9.44086942       7.14204167
Si       6.44069733       5.78424521       7.14204167
Si      12.45195790       2.68568491       7.14204167
Si      14.13922968       3.74839849       6.95238478
Si      10.36578671      10.37073284       6.95238478
Si       6.51739841       3.79166820       6.95238478
Si      11.95477091      11.04636071       5.94089144
Si       5.13779541       4.82995495       5.94089144
Si      13.92984847       2.03448387       5.94089144
Si       5.59235850       1.90799959       1.99843435
Si       5.89224905       3.88912473       1.99843435
Si       4.02659907       3.15827500       1.99843435
24
Lattice="10.342032094870651 -1.0545405030735688e-13 3.663358361987901e-14 5.171016047435418 8.956462520911925 -4.6000914704390114e-14 5.171016047435324 2.98548750697067 8.826292010600197" Properties=species:S:1:pos:R:3 unique_starting_index=24 config_type=initial n_minim_iter=10 stress="-0.020819807471445753 2.5544193331514943e-14 -1.1453645510261747e-14 2.5544193331514943e-14 -0.020819807471478973 4.369737409323219e-15 -1.1453645510261747e-14 4.369737409323219e-15 0.02161369510208823" pbc="T T T"
Si      11.26301153       4.72865300       8.86251872
Si      10.95742377       7.38972761       8.86251872
Si       8.80565943       5.79454354       8.86251872
Si      11.58754092       4.45869133       6.88760367
Si      11.02895274       7.80575914       6.88760367
Si       8.40960108       5.64847368       6.88760367
Si      13.02277764       4.48835399       1.39213438
Si      10.28564576       9.03387928       1.39213438
Si       7.71767133       4.39069089       1.39213438
Si      11.54566969       7.53244111       1.84392680
Si       8.38794296       6.23262270       1.84392680
Si      11.09248209       4.14786034       1.84392680
Si      12.14110607       9.44612571       7.15355493
Si       6.43292529       5.79144343       7.15355493
Si      12.45206338       2.67535501       7.15355493
Si      14.12093358       3.74671186       6.96594431
Si      10.37884872      10.35573128       6.96594431
Si       6.52631244       3.81048101       6.96594431
Si      11.96709555      11.06042999       5.97563383
Si       5.12190204       4.83359376       5.97563383
Si      13.93709715       2.01890040       5.97563383
Si       5.60310590       1.91315785       1.99909021
Si       5.88363481       3.89585313       1.99909021
Si       4.02630588       3.14745065       1.99909021
24
Lattice="10.381656088832786 -1.4697649845737252e-13 3.675569432453942e-14 5.190828044416521 8.990777906282513 -4.617904544722698e-14 5.190828044416404 2.996925968760851 8.81771557865647" Properties=species:S:1:pos:R:3 unique_starting_index=24 config_type=initial n_minim_iter=11 stress="-0.006526628556692693 2.957993262976947e-14 -6.639850713390591e-15 2.957993262976947e-14 -0.006526628556735781 1.432411245716183e-14 -6.639850713390591e-15 1.432411245716183e-14 0.03288323888199991" pbc="T T T"
Si      11.37754332       4.71259207       8.84979327
Si      10.99331503       7.49694551       8.84979327
Si       8.77410836       5.77201734       8.84979327
Si      11.63991613       4.45764344       6.86921597
Si      11.08292062       7.85164135       6.86921597
Si       8.42212996       5.67227013       6.86921597
Si      13.07563625       4.50721314       1.42255644
Si      10.32213194       9.07022659       1.42255644
Si       7.74719853       4.40411519       1.42255644
Si      11.59139763       7.55670976       1.76234164
Si       8.42330971       6.26008994       1.76234164
Si      11.13025937       4.16475522       1.76234164
Si      12.21116520       9.47770081       7.15630263
Si       6.44979887       5.83632887       7.15630263
Si      12.48400264       2.66752524       7.15630263
Si      14.14320170       3.75027677       6.97196894
Si      10.44387534      10.37323358       6.97196894
Si       6.55788967       3.85804457       6.97196894
Si      12.03041708      11.12312438       6.01890050
Si       5.11519432       4.85708462       6.01890050
Si      13.99935531       2.00134591       6.01890050
Si       5.64675385       1.93166939       1.98940998
Si       5.88540336       3.92439759       1.98940998
Si       4.04032537       3.13471003       1.98940998
24
Lattice="10.418238900053284 -1.6628136865159755e-13 3.689247482590545e-14 5.209119450026786 9.022459550141301 -4.625956538779105e-14 5.209119450026657 3.0074865167137745 8.79406131871754" Properties=species:S:1:pos:R:3 unique_starting_index=24 config_type=initial n_minim_iter=12 stress="0.00797628190935787 3.6362246030825007e-14 -1.3079572611572418e-14 3.6362246030825007e-14 0.007976281909317663 5.882953632819172e-15 -1.3079572611572418e-14 5.882953632819172e-15 0.036598413599381846" pbc="T T T"
Si      11.45227383       4.70858855       8.82822503
Si      11.03258255       7.56366580       8.82822503
Si       8.76985876       5.77266386       8.82822503
Si      11.68317695       4.46335521       6.84539955
Si      11.12950929       7.88625043       6.84539955
Si       8.44202891       5.69531256       6.84539955
Si      13.12986372       4.51887717       1.43590656
Si      10.35808248       9.11135694       1.43590656
Si       7.76676895       4.41468409       1.43590656
Si      11.63295238       7.57845567       1.72171448
Si       8.45686544       6.28520445       1.72171448
Si      11.16489732       4.18125808       1.72171448
Si      12.26451293       9.50597064       7.14286320
Si       6.47180824       5.86839444       7.14286320
Si      12.51839398       2.67055312       7.14286320
Si      14.18143727       3.75589832       6.96226774
Si      10.49305477      10.40353578       6.96226774
Si       6.58022310       3.88548411       6.96226774
Si      12.08153000      11.17058820       6.02047294
Si       5.12169860       4.87761780       6.02047294
Si      14.05148653       1.99671220       6.02047294
Si       5.67286501       1.94673845       1.97354532
Si       5.89588040       3.93947599       1.97354532
Si       4.05861137       3.13624421       1.97354532
24
Lattice="10.455567385366443 -1.7691845817153222e-13 3.7084516070262534e-14 5.2277836926833725 9.05478696670728 -4.6294934315796677e-14 5.227783692683238 3.0182623222357656 8.780571132743935" Properties=species:S:1:pos:R:3 unique_starting_index=24 config_type=initial n_minim_iter=13 stress="0.02807353207856993 4.405700543168968e-14 -2.53020804025537e-15 4.405700543168968e-14 0.028073532078528144 5.980212479203732e-15 -2.53020804025537e-15 5.980212479203732e-15 0.04610211465453759" pbc="T T T"
Si      11.51958200       4.69790217       8.82827292
Si      11.08284011       7.62729957       8.82827292
Si       8.76427849       5.78437130       8.82827292
Si      11.72010346       4.46982962       6.83064957
Si      11.18009600       7.91499252       6.83064957
Si       8.46650114       5.72475089       6.83064957
Si      13.17609643       4.52854798       1.44663997
Si      10.40124792       9.14656025       1.44663997
Si       7.78935624       4.43446481       1.44663997
Si      11.66651603       7.60197984       1.69729813
Si       8.49436806       6.30250934       1.69729813
Si      11.20581650       4.20508386       1.69729813
Si      12.30913879       9.53908434       7.13499373
Si       6.49547497       5.89048472       7.13499373
Si      12.56208684       2.68000397       7.13499373
Si      14.23867907       3.75448733       6.96162732
Si      10.54031278      10.45381413       6.96162732
Si       6.58770873       3.90127157       6.96162732
Si      12.12860134      11.21328522       6.01840603
Si       5.13584320       4.89703427       6.01840603
Si      14.10225605       1.99925355       6.01840603
Si       5.70031364       1.96286740       1.94971948
Si       5.90551650       3.95518272       1.94971948
Si       4.07751938       3.13673595       1.94971948
24
Lattice="10.491059257801492 -1.7538017708499904e-13 3.708443478267864e-14 5.245529628900896 9.085523829863913 -4.642782905686024e-14 5.245529628900761 3.0285079432879765 8.747654590508704" Properties=species:S:1:pos:R:3 unique_starting_index=24 config_type=initial n_minim_iter=14 stress="0.03954578704805448 3.403031443282598e-14 -1.3528292965540781e-15 3.403031443282598e-14 0.039545787048021384 9.38811602337501e-15 -1.3528292965540781e-15 9.38811602337501e-15 -0.010924010552487725" pbc="T T T"
Si      11.57859954       4.67864487       8.79123251
Si      11.14099239       7.68803891       8.79123251
Si       8.75358427       5.80436298       8.79123251
Si      11.74789586       4.47757442       6.81705648
Si      11.23047634       7.93518905       6.81705648
Si       8.49480400       5.75828329       6.81705648
Si      13.21719901       4.53117803       1.44859111
Si      10.44940268       9.18084110       1.44859111
Si       7.80657451       4.45902763       1.44859111
Si      11.69209096       7.62349489       1.68570119
Si       8.53393176       6.31390035       1.68570119
Si      11.24715349       4.23365152       1.68570119
Si      12.34200847       9.57396979       7.10799189
Si       6.51981218       5.90150798       7.10799189
Si      12.61135555       2.69556899       7.10799189
Si      14.30898720       3.75131907       6.94824879
Si      10.57888626      10.51628689       6.94824879
Si       6.58530274       3.90344081       6.94824879
Si      12.17030255      11.24966120       5.98920245
Si       5.15447382       4.91496058       5.98920245
Si      14.14839984       2.00642498       5.98920245
Si       5.72070137       1.97628439       1.92637854
Si       5.91919504       3.96613052       1.92637854
Si       4.09669090       3.14310802       1.92637854
24
Lattice="10.496248646924144 -1.7755151779611518e-13 3.708779629816724e-14 5.248124323462224 9.090017972674246 -4.629593530306944e-14 5.248124323462087 3.0300059908914214 8.772312954836064" Properties=species:S:1:pos:R:3 unique_starting_index=24 config_type=initial n_minim_iter=15 stress="0.01871853018837014 4.437889339194362e-14 -1.9628830018630316e-14 4.437889339194362e-14 0.018718530188326456 -3.3074853160573707e-15 -1.9628830018630316e-14 -3.3074853160573707e-15 -0.028664934094573564" pbc="T T T"
Si      11.60305412       4.64642931       8.82630976
Si      11.16704337       7.72532498       8.82630976
Si       8.71864688       5.80828076       8.82630976
Si      11.74018208       4.47395091       6.83846444
Si      11.24785007       7.93032047       6.83846444
Si       8.50071223       5.77576366       6.83846444
Si      13.21701590       4.52416509       1.45582538
Si      10.46594639       9.18418899       1.45582538
Si       7.80578207       4.47168096       1.45582538
Si      11.68552925       7.62092905       1.68725202
Si       8.54981346       6.30950066       1.68725202
Si      11.25340165       4.24960533       1.68725202
Si      12.33301600       9.59146471       7.12449393
Si       6.51953615       5.88497281       7.12449393
Si      12.63619222       2.70359752       7.12449393
Si      14.33798304       3.74387888       6.97635223
Si      10.58121051      10.54511812       6.97635223
Si       6.56955082       3.89103805       6.97635223
Si      12.17485807      11.26123761       6.00570286
Si       5.15254936       4.91311758       6.00570286
Si      14.16133694       2.00567985       6.00570286
Si       5.73000175       1.98098118       1.91477030
Si       5.91566670       3.97183649       1.91477030
Si       4.09870295       3.13719940       1.91477030
24
Lattice="10.483902852025572 -1.7986800472762894e-13 3.686359584397235e-14 5.24195142601294 9.07932620066217 -4.627367047794542e-14 5.241951426012801 3.026442066887397 8.812559602397513" Properties=species:S:1:pos:R:3 unique_starting_index=24 config_type=initial n_minim_iter=16 stress="0.004749099249705967 3.3077491546389947e-14 -8.472136639194595e-15 3.3077491546389947e-14 0.004749099249669205 -8.617074836450235e-15 -8.472136639194595e-15 -8.617074836450235e-15 0.027067487708183235" pbc="T T T"
Si      11.60168658       4.61989991       8.86870462
Si      11.16601069       7.73740535       8.86870462
Si       8.68400972       5.80134624       8.86870462
Si      11.71523335       4.46410902       6.87094684
Si      11.24415617       7.91363518       6.87094684
Si       8.49231747       5.78090729       6.87094684
Si      13.19866028       4.51246556       1.46159768
Si      10.46056471       9.17414232       1.46159768
Si       7.79248200       4.47204362       1.46159768
Si      11.66621955       7.60091816       1.69765928
Si       8.55210666       6.30278341       1.69765928
Si      11.23338078       4.25494992       1.69765928
Si      12.30848085       9.58897112       7.15301393
Si       6.50927165       5.86497154       7.15301393
Si      12.63395449       2.70470884       7.15301393
Si      14.33734673       3.73851106       7.01334736
Si      10.56148575      10.54725096       7.01334736
Si       6.55287451       3.87288948       7.01334736
Si      12.15636533      11.24800198       6.03076143
Si       5.14856654       4.90372021       6.03076143
Si      14.14677512       2.00692931       6.03076143
Si       5.72553577       1.97761056       1.92046065
Si       5.90847294       3.96965415       1.92046065
Si       4.09184400       3.13206059       1.92046065
24
Lattice="10.469953600182032 -1.7193170149291687e-13 3.6660593844160615e-14 5.234976800091162 9.06724579420188 -4.610083709348674e-14 5.234976800091027 3.0224152647339704 8.817227779573328" Properties=species:S:1:pos:R:3 unique_starting_index=24 config_type=initial n_minim_iter=17 stress="-0.0031510193695911456 4.8746267235341944e-14 -9.450639089142472e-15 4.8746267235341944e-14 -0.003151019369654369 9.446925310150765e-16 -9.450639089142472e-15 9.446925310150765e-16 0.008665910755071933" pbc="T T T"
Si      11.57367616       4.61389360       8.87530049
Si      11.15731901       7.71615078       8.87530049
Si       8.67886406       5.80444632       8.87530049
Si      11.69338800       4.45814412       6.87743170
Si      11.23234609       7.89769901       6.87743170
Si       8.48412514       5.77864756       6.87743170
Si      13.17898253       4.50179479       1.45505051
Si      10.45174624       9.16243628       1.45505051
Si       7.77913046       4.47025962       1.45505051
Si      11.64893949       7.58134956       1.71617656
Si       8.54979510       6.29760275       1.71617656
Si      11.21112464       4.25553838       1.71617656
Si      12.28544406       9.57887447       7.15426996
Si       6.50163550       5.85006942       7.15426996
Si      12.62277968       2.70554680       7.15426996
Si      14.33122867       3.73687351       7.01931804
Si      10.53806444      10.54277134       7.01931804
Si       6.54056613       3.85484584       7.01931804
Si      12.13235604      11.22689855       6.01990450
Si       5.15094879       4.89347927       6.01990450
Si      14.12655440       2.01411287       6.01990450
Si       5.71699236       1.97274933       1.92076724
Si       5.90300534       3.96468596       1.92076724
Si       4.08493113       3.12980961       1.92076724
24
Lattice="10.466837704432463 -1.6403947591351146e-13 3.6468481272388026e-14 5.233418852216372 9.064547349327219 -4.604899204520201e-14 5.23341885221624 3.021515783109085 8.813296674331946" Properties=species:S:1:pos:R:3 unique_starting_index=24 config_type=initial n_minim_iter=18 stress="-0.007268904706611954 5.82315112278021e-14 -7.508055554209738e-15 5.82315112278021e-14 -0.0072689047066315194 8.654319270227657e-15 -7.508055554209738e-15 8.654319270227657e-15 -0.005535326147848475" pbc="T T T"
Si      11.56785686       4.60571827       8.86775924
Si      11.16107691       7.71519878       8.86775924
Si       8.67157777       5.80817675       8.86775924
Si      11.68656104       4.45348688       6.87553484
Si      11.23356108       7.89411531       6.87553484
Si       8.48038943       5.78149162       6.87553484
Si      13.16979386       4.49639658       1.45185296
Si      10.45478377       9.15717775       1.45185296
Si       7.77593392       4.47551946       1.45185296
Si      11.64421798       7.57027561       1.72424690
Si       8.55551438       6.29905077       1.72424690
Si      11.20077919       4.25976741       1.72424690
Si      12.27724992       9.57912979       7.15010870
Si       6.49927966       5.84284542       7.15010870
Si      12.62398197       2.70711858       7.15010870
Si      14.33356771       3.73692242       7.01892123
Si      10.53062077      10.54477256       7.01892123
Si       6.53632307       3.84739883       7.01892123
Si      12.12134318      11.21988941       6.01116308
Si       5.15629352       4.88744642       6.01116308
Si      14.12287484       2.02175797       6.01116308
Si       5.71695590       1.97167759       1.92033542
Si       5.90083583       3.96519025       1.92033542
Si       4.08246326       3.12767861       1.92033542
24
Lattice="10.471274533475123 -1.6378690334762842e-13 3.6413657445169346e-14 5.2356372667377 9.068389755990411 -4.604035645674559e-14 5.2356372667375695 3.0227965853301484 8.798663218874575" Properties=species:S:1:pos:R:3 unique_starting_index=24 config_type=initial n_minim_iter=19 stress="0.00035770601504354926 5.4435083180135764e-14 -1.269906553434631e-14 5.4435083180135764e-14 0.00035770601501634364 6.745917633172454e-15 -1.269906553434631e-14 6.745917633172454e-15 -0.0037476319752718684" pbc="T T T"
Si      11.57602497       4.59569255       8.85327520
Si      11.17454905       7.72728543       8.85327520
Si       8.66324802       5.81380064       8.85327520
Si      11.68933500       4.44954062       6.85871893
Si      11.24446531       7.89849075       6.85871893
Si       8.48002173       5.78874724       6.85871893
Si      13.16652055       4.49148840       1.44709276
Si      10.46954469       9.15679708       1.44709276
Si       7.77775679       4.48849313       1.44709276
Si      11.65092410       7.56404802       1.72577524
Si       8.56642824       6.30797224       1.72577524
Si      11.19646970       4.26475835       1.72577524
Si      12.28254069       9.58368387       7.14020413
Si       6.50156398       5.84515033       7.14020413
Si      12.62971736       2.70794441       7.14020413
Si      14.33903264       3.74210976       7.01166241
Si      10.53226958      10.54691165       7.01166241
Si       6.54251981       3.84775719       7.01166241
Si      12.11802671      11.22370467       5.99952639
Si       5.16352130       4.88266664       5.99952639
Si      14.13227403       2.03040730       5.99952639
Si       5.72180520       1.97366241       1.91555849
Si       5.90112911       3.96839745       1.91555849
Si       4.08397593       3.12632899       1.91555849
24
Lattice="10.490689304049257 -1.5299427435765475e-13 3.655322227604766e-14 5.245344652024757 9.085203440516265 -4.5809458451874804e-14 5.245344652024632 3.028401146838769 8.739050660386432" Properties=species:S:1:pos:R:3 unique_starting_index=24 config_type=initial n_minim_iter=20 stress="0.015344976895123461 4.900090026250946e-14 -1.6618702683027367e-14 4.900090026250946e-14 0.015344976895107868 7.568842167837827e-15 -1.6618702683027367e-14 7.568842167837827e-15 0.002100670876551467" pbc="T T T"
Si      11.59193546       4.57063479       8.78942886
Si      11.22712399       7.75359320       8.78942886
Si       8.65300689       5.84617799       8.78942886
Si      11.70101116       4.44306331       6.79474349
Si      11.28306629       7.91184126       6.79474349
Si       8.48798890       5.81550141       6.79474349
Si      13.16014882       4.46149162       1.41660552
Si      10.53753807       9.16627738       1.41660552
Si       7.77437946       4.54263697       1.41660552
Si      11.68182948       7.55735771       1.74890096
Si       8.59559906       6.33808224       1.74890096
Si      11.19463780       4.27496603       1.74890096
Si      12.29756929       9.61052155       7.10072751
Si       6.50963711       5.84474664       7.10072751
Si      12.66485994       2.71513779       7.10072751
Si      14.36003295       3.77030802       6.97307741
Si      10.53617857      10.55099933       6.97307741
Si       6.57585483       3.84909864       6.97307741
Si      12.11085933      11.24016709       5.94680179
Si       5.19167765       4.86822830       5.94680179
Si      14.16952936       2.06201059       5.94680179
Si       5.72546344       1.97760746       1.90407195
Si       5.91529824       3.96959306       1.90407195
Si       4.09527071       3.13800202       1.90407195
24
Lattice="10.49462983117094 -1.4895779885609504e-13 3.648870341316873e-14 5.247314915585595 9.08861603710795 -4.575254520719956e-14 5.247314915585473 3.029538679035998 8.731963911022723" Properties=species:S:1:pos:R:3 unique_starting_index=24 config_type=initial n_minim_iter=21 stress="-0.00031715240573128485 4.7863324681866784e-14 -1.902005359027734e-14 4.7863324681866784e-14 -0.0003171524057364164 1.4722362608202585e-14 -1.902005359027734e-14 1.4722362608202585e-14 0.0029103325390064487" pbc="T T T"
Si      11.58815770       4.56865445       8.78278498
Si      11.23860895       7.75131172       8.78278498
Si       8.65712127       5.85726500       8.78278498
Si      11.70489458       4.44129077       6.78687241
Si      11.29054069       7.91609067       6.78687241
Si       8.48845265       5.81984972       6.78687241
Si      13.15730915       4.44805637       1.40583715
Si      10.55847423       9.17053579       1.40583715
Si       7.76810454       4.55863902       1.40583715
Si      11.69377267       7.55976373       1.75712967
Si       8.59542485       6.34722233       1.75712967
Si      11.19469041       4.27024511       1.75712967
Si      12.30017031       9.61582110       7.09775722
Si       6.51162812       5.84434941       7.09775722
Si      12.67208950       2.71706067       7.09775722
Si      14.36221907       3.77786582       6.96624601
Si      10.53642131      10.54911366       6.96624601
Si       6.58524754       3.85025169       6.96624601
Si      12.10596278      11.24200682       5.94013506
Si       5.20041373       4.86306790       5.94013506
Si      14.17751141       2.07215645       5.94013506
Si       5.72457559       1.97748787       1.90461096
Si       5.91978626       3.96888395       1.90461096
Si       4.09758133       3.14224331       1.90461096
