16
Lattice="6.6565 3.79402086122206e-49 0.0 -8.204769711880728e-32 6.6565 0.0 0.0 0.0 7.545639999999999" Properties=species:S:1:pos:R:3:forces:R:3 unique_starting_index=224 config_type=initial n_minim_iter=1 energy=-2498.07173048931 stress="-1.1092149508079394 -1.1092149508031703 0.035338656030502506 -6.908037978936283e-13 -1.909882156899414e-12 3.1889270238552403e-12" pbc="T T T"
Si       5.50713479       1.82174160       4.65196780     -19.28285224      31.59471603      -6.64133250
Si       1.14936521       4.83475840       4.65196780      19.28285224     -31.59471603      -6.64133250
Si       4.83475840       5.50713479       4.65196780     -31.59471603     -19.28285224      -6.64133250
Si       1.82174160       1.14936521       4.65196780      31.59471603      19.28285224      -6.64133250
Si       2.17888479       1.50650840       0.87914780     -19.28285224     -31.59471603      -6.64133250
Si       4.47761521       5.14999160       0.87914780      19.28285224      31.59471603      -6.64133250
Si       1.50650840       4.47761521       0.87914780     -31.59471603      19.28285224      -6.64133250
Si       5.14999160       2.17888479       0.87914780      31.59471603     -19.28285224      -6.64133250
Si       5.55303535       0.24971993       4.94632850     -16.12232903       3.73379874       6.64133250
Si       1.10346465       6.40678007       4.94632850      16.12232903      -3.73379874       6.64133250
Si       6.40678007       5.55303535       4.94632850      -3.73379874     -16.12232903       6.64133250
Si       0.24971993       1.10346465       4.94632850       3.73379874      16.12232903       6.64133250
Si       2.22478535       3.07853007       1.17350850     -16.12232903      -3.73379874       6.64133250
Si       4.43171465       3.57796993       1.17350850      16.12232903       3.73379874       6.64133250
Si       3.07853007       4.43171465       1.17350850      -3.73379874      16.12232903       6.64133250
Si       3.57796993       2.22478535       1.17350850       3.73379874     -16.12232903       6.64133250
16
Lattice="6.907993924203034 5.2513228543170146e-49 0.0 -8.514759906731338e-32 6.907993924203034 0.0 0.0 0.0 7.536730003624712" Properties=species:S:1:pos:R:3:forces:R:3 unique_starting_index=224 config_type=initial n_minim_iter=2 energy=-2522.706498558945 stress="-0.7365237450409621 -0.7365237450405208 0.019014580583262903 2.7705623293515553e-12 -5.582431471461557e-13 -5.357488644852183e-12" pbc="T T T"
Si       5.71320260       1.89384895       4.64581134     -13.22005161      21.65138053      -4.06851188
Si       1.19479133       5.01414498       4.64581134      13.22005161     -21.65138053      -4.06851188
Si       5.01414498       5.71320260       4.64581134     -21.65138053     -13.22005161      -4.06851188
Si       1.89384895       1.19479133       4.64581134      21.65138053      13.22005161      -4.06851188
Si       2.25920563       1.56014802       0.87744634     -13.22005161     -21.65138053      -4.06851188
Si       4.64878829       5.34784591       0.87744634      13.22005161      21.65138053      -4.06851188
Si       1.56014802       4.64878829       0.87744634     -21.65138053      13.22005161      -4.06851188
Si       5.34784591       2.25920563       0.87744634      21.65138053     -13.22005161      -4.06851188
Si       5.76116535       0.25954226       4.94115116     -11.65488645       2.67775818       4.06851188
Si       1.14682857       6.64845166       4.94115116      11.65488645      -2.67775818       4.06851188
Si       6.64845166       5.76116535       4.94115116      -2.67775818     -11.65488645       4.06851188
Si       0.25954226       1.14682857       4.94115116       2.67775818      11.65488645       4.06851188
Si       2.30716839       3.19445470       1.17278615     -11.65488645      -2.67775818       4.06851188
Si       4.60082553       3.71353922       1.17278615      11.65488645       2.67775818       4.06851188
Si       3.19445470       4.60082553       1.17278615      -2.67775818      11.65488645       4.06851188
Si       3.71353922       2.30716839       1.17278615       2.67775818     -11.65488645       4.06851188
16
Lattice="7.578302366654935 -9.656139386532911e-50 -1.160685561732352e-47 -9.340978851559295e-32 7.578302366654935 2.996272867003007e-95 0.0 0.0 7.518732119589167" Properties=species:S:1:pos:R:3:forces:R:3 unique_starting_index=224 config_type=initial n_minim_iter=3 energy=-2556.824397969384 stress="-0.2269887036302742 -0.22698870363614482 0.008468710786749108 2.180273677317459e-12 -1.7849105504027653e-12 -4.633992474727823e-12" pbc="T T T"
Si       6.26211527       2.08655956       4.63330139      -4.78270059       7.26053743      -0.56854263
Si       1.31618710       5.49174281       4.63330139       4.78270059      -7.26053743      -0.56854263
Si       5.49174281       6.26211527       4.63330139      -7.26053743      -4.78270059      -0.56854263
Si       2.08655956       1.31618710       4.63330139       7.26053743       4.78270059      -0.56854263
Si       2.47296408       1.70259162       0.87393533      -4.78270059      -7.26053743      -0.56854263
Si       5.10533828       5.87571074       0.87393533       4.78270059       7.26053743      -0.56854263
Si       1.70259162       5.10533828       0.87393533      -7.26053743       4.78270059      -0.56854263
Si       5.87571074       2.47296408       0.87393533       7.26053743      -4.78270059      -0.56854263
Si       6.31537854       0.28583270       4.93076722      -6.61345995       1.79051220       0.56854263
Si       1.26292383       7.29246967       4.93076722       6.61345995      -1.79051220       0.56854263
Si       7.29246967       6.31537854       4.93076722      -1.79051220      -6.61345995       0.56854263
Si       0.28583270       1.26292383       4.93076722       1.79051220       6.61345995       0.56854263
Si       2.52622735       3.50331848       1.17140116      -6.61345995      -1.79051220       0.56854263
Si       5.05207501       4.07498388       1.17140116       6.61345995       1.79051220       0.56854263
Si       3.50331848       5.05207501       1.17140116      -1.79051220       6.61345995       0.56854263
Si       4.07498388       2.52622735       1.17140116       1.79051220      -6.61345995       0.56854263
16
Lattice="8.002583851929334 -2.3792485752843178e-48 -1.1583289627733926e-47 -9.86394615865629e-32 8.002583851929334 -1.5480166358528592e-18 -3.1459926553354654e-64 -1.7582507577643907e-18 7.503466455166434" Properties=species:S:1:pos:R:3:forces:R:3 unique_starting_index=224 config_type=initial n_minim_iter=4 energy=-2564.7454380238605 stress="-0.10089509573257989 -0.10089509573218644 0.007762170882156528 -1.4941521545676587e-12 3.023827324786228e-12 -3.182576486283385e-12" pbc="T T T"
Si       6.60907001       2.20890155       4.62358106      -2.80087406       4.38003619       0.29262257
Si       1.39351384       5.79368231       4.62358106       2.80087406      -4.38003619       0.29262257
Si       5.79368231       6.60907001       4.62358106      -4.38003619      -2.80087406       0.29262257
Si       2.20890155       1.39351384       4.62358106       4.38003619       2.80087406       0.29262257
Si       2.60777808       1.79239038       0.87184784      -2.80087406      -4.38003619       0.29262257
Si       5.39480577       6.21019347       0.87184784       2.80087406       4.38003619       0.29262257
Si       1.79239038       5.39480577       0.87184784      -4.38003619       2.80087406       0.29262257
Si       6.21019347       2.60777808       0.87184784       4.38003619      -2.80087406       0.29262257
Si       6.66392263       0.30319748       4.92106913      -5.67494328       1.66628766      -0.29262257
Si       1.33866122       7.69938637       4.92106913       5.67494328      -1.66628766      -0.29262257
Si       7.69938637       6.66392263       4.92106913      -1.66628766      -5.67494328      -0.29262257
Si       0.30319748       1.33866122       4.92106913       1.66628766       5.67494328      -0.29262257
Si       2.66263070       3.69809444       1.16933591      -5.67494328      -1.66628766      -0.29262257
Si       5.33995315       4.30448941       1.16933591       5.67494328       1.66628766      -0.29262257
Si       3.69809444       5.33995315       1.16933591      -1.66628766       5.67494328      -0.29262257
Si       4.30448941       2.66263070       1.16933591       1.66628766      -5.67494328      -0.29262257
16
Lattice="8.445292039158126 6.598254078964359e-48 -1.1535405840900563e-47 -1.0409626129478256e-31 8.445292039158126 -4.5131778243264495e-18 -3.2977666738607435e-64 -5.2884733536824975e-18 7.4724481175613535" Properties=species:S:1:pos:R:3:forces:R:3 unique_starting_index=224 config_type=initial n_minim_iter=5 energy=-2571.0789267254045 stress="-0.11447377279834779 -0.11447377279794926 -0.03711219278043841 -7.627833752604833e-13 1.7646527827835758e-12 2.4091628680424314e-12" pbc="T T T"
Si       6.96994353       2.33851904       4.60478782      -2.32445824       3.39704271       0.29016623
Si       1.47534851       6.10677300       4.60478782       2.32445824      -3.39704272       0.29016623
Si       6.10677300       6.96994353       4.60478782      -3.39704272      -2.32445824       0.29016623
Si       2.33851904       1.47534851       4.60478782       3.39704272       2.32445824       0.29016623
Si       2.74729751       1.88412698       0.86856376      -2.32445824      -3.39704272       0.29016623
Si       5.69799453       6.56116505       0.86856376       2.32445824       3.39704271       0.29016623
Si       1.88412698       5.69799453       0.86856376      -3.39704272       2.32445824       0.29016623
Si       6.56116505       2.74729751       0.86856376       3.39704272      -2.32445824       0.29016623
Si       7.02296207       0.32279319       4.90040605      -4.59444094       1.41909566      -0.29016623
Si       1.42232997       8.12249885       4.90040605       4.59444094      -1.41909566      -0.29016623
Si       8.12249885       7.02296207       4.90040605      -1.41909566      -4.59444094      -0.29016623
Si       0.32279319       1.42232997       4.90040605       1.41909566       4.59444094      -0.29016623
Si       2.80031605       3.89985283       1.16418200      -4.59444094      -1.41909566      -0.29016623
Si       5.64497599       4.54543921       1.16418200       4.59444094       1.41909566      -0.29016623
Si       3.89985283       5.64497599       1.16418200      -1.41909566       4.59444094      -0.29016623
Si       4.54543921       2.80031605       1.16418200       1.41909566      -4.59444094      -0.29016623
16
Lattice="15.544474397436401 3.0363049538618425e-47 -1.405830242238658e-47 -1.9160043975541442e-31 15.544474397436401 5.246392299849828e-17 -6.670256478394248e-64 5.3674138976907e-17 9.10673945252971" Properties=species:S:1:pos:R:3:forces:R:3 unique_starting_index=224 config_type=initial n_minim_iter=6 energy=-2537.656631752956 stress="-0.011966737163994677 -0.01196673716436415 0.027827393526949726 -1.800878321867063e-15 -4.804440235366374e-15 -4.3534045621416497e-14" pbc="T T T"
Si      12.76006723       4.40494426       5.61536417      -1.65979406       2.45949369      -0.05735057
Si       2.78440717      11.13953014       5.61536417       1.65979406      -2.45949369      -0.05735057
Si      11.13953014      12.76006723       5.61536417      -2.45949369      -1.65979406      -0.05735057
Si       4.40494426       2.78440717       5.61536417       2.45949369       1.65979406      -0.05735057
Si       4.98783003       3.36729294       1.06199445      -1.65979406      -2.45949369      -0.05735057
Si      10.55664437      12.17718145       1.06199445       1.65979406       2.45949369      -0.05735057
Si       3.36729294      10.55664437       1.06199445      -2.45949369       1.65979406      -0.05735057
Si      12.17718145       4.98783003       1.06199445       2.45949369      -1.65979406      -0.05735057
Si      12.79039909       0.63618044       5.96870074       1.30144972      -0.49721536       0.05735057
Si       2.75407531      14.90829395       5.96870074      -1.30144972       0.49721536       0.05735057
Si      14.90829395      12.79039909       5.96870074       0.49721536       1.30144972       0.05735057
Si       0.63618044       2.75407531       5.96870074      -0.49721536      -1.30144972       0.05735057
Si       5.01816189       7.13605676       1.41533101       1.30144972       0.49721536       0.05735057
Si      10.52631251       8.40841764       1.41533101      -1.30144972      -0.49721536       0.05735057
Si       7.13605676      10.52631251       1.41533101       0.49721536      -1.30144972       0.05735057
Si       8.40841764       5.01816189       1.41533101      -0.49721536       1.30144972       0.05735057
16
Lattice="18.406256206245203 3.595297304506448e-47 -9.490158635575753e-48 -2.2687462394669465e-31 18.406256206245203 -1.0696780865793181e-16 3.715694594813133e-63 2.8422356591875204e-17 6.147570272762109" Properties=species:S:1:pos:R:3:forces:R:3 unique_starting_index=224 config_type=initial n_minim_iter=7 energy=-2528.980579031773 stress="-0.02934811320024775 -0.029348113200315412 0.05840460145092334 -2.1362879832855586e-14 -3.167073905956391e-15 -1.5246353286056448e-13" pbc="T T T"
Si      15.04045177       5.31782565       3.79033028      -2.97191455       3.45807267      -0.10551235
Si       3.36580443      13.08843055       3.79033028       2.97191455      -3.45807267      -0.10551235
Si      13.08843055      15.04045177       3.79033028      -3.45807267      -2.97191455      -0.10551235
Si       5.31782565       3.36580443       3.79033028       3.45807267       2.97191455      -0.10551235
Si       5.83732367       3.88530245       0.71654514      -2.97191455      -3.45807267      -0.10551235
Si      12.56893254      14.52095376       0.71654514       2.97191455       3.45807267      -0.10551235
Si       3.88530245      12.56893254       0.71654514      -3.45807267       2.97191455      -0.10551235
Si      14.52095376       5.83732367       0.71654514       3.45807267      -2.97191455      -0.10551235
Si      15.19907845       0.73269902       4.02957645      -1.84194614       0.44957040       0.10551235
Si       3.20717776      17.67355719       4.02957645       1.84194614      -0.44957040       0.10551235
Si      17.67355719      15.19907845       4.02957645      -0.44957040      -1.84194614       0.10551235
Si       0.73269902       3.20717776       4.02957645       0.44957040       1.84194614       0.10551235
Si       5.99595034       8.47042909       0.95579131      -1.84194614      -0.44957040       0.10551235
Si      12.41030586       9.93582712       0.95579131       1.84194614       0.44957040       0.10551235
Si       8.47042909      12.41030586       0.95579131      -0.44957040       1.84194614       0.10551235
Si       9.93582712       5.99595034       0.95579131       0.44957040      -1.84194614       0.10551235
16
Lattice="33.91761933683137 -6.621647679872118e-48 -2.8118456921018306e-48 -4.180669358280388e-31 33.91761933683137 -1.3981684959970207e-16 1.6562167157553954e-63 -1.8083329102418859e-16 1.8214678649900775" Properties=species:S:1:pos:R:3:forces:R:3 unique_starting_index=224 config_type=initial n_minim_iter=8 energy=-2248.641287470668 stress="-0.0006799303514855897 -0.0006799303514856428 -0.26048301552353265 8.960604283969714e-15 -1.1585384179178564e-14 4.02496966449303e-15" pbc="T T T"
Si      27.29664520      10.28650501       1.12283208       6.93906609      -6.93906609       0.00000000
Si       6.62097414      23.63111433       1.12283208      -6.93906609       6.93906609      -0.00000000
Si      23.63111433      27.29664520       1.12283208       6.93906609       6.93906609      -0.00000000
Si      10.28650501       6.62097414       1.12283208      -6.93906609      -6.93906609      -0.00000000
Si      10.33783553       6.67230466       0.21209815       6.93906609       6.93906609       0.00000000
Si      23.57978381      27.24531468       0.21209815      -6.93906609      -6.93906609       0.00000000
Si       6.67230466      23.57978381       0.21209815       6.93906609      -6.93906609       0.00000000
Si      27.24531468      10.33783553       0.21209815      -6.93906609       6.93906609      -0.00000000
Si      27.74815825       1.41350355       1.19413351      -0.00000000       0.00000000      -0.00000000
Si       6.16946109      32.50411578       1.19413351      -0.00000000       0.00000000      -0.00000000
Si      32.50411578      27.74815825       1.19413351      -0.00000000       0.00000000      -0.00000000
Si       1.41350355       6.16946109       1.19413351      -0.00000000       0.00000000      -0.00000000
Si      10.78934858      15.54530611       0.28339958      -0.00000000       0.00000000      -0.00000000
Si      23.12827076      18.37231322       0.28339958      -0.00000000       0.00000000      -0.00000000
Si      15.54530611      23.12827076       0.28339958      -0.00000000       0.00000000      -0.00000000
Si      18.37231322      10.78934858       0.28339958      -0.00000000       0.00000000      -0.00000000
