2
Lattice="2.7405377579890056 4.9963446214658974e-17 2.7405377579890047 2.7405377579890056 2.7405377579890056 5.699173184361274e-17 9.87379418662591e-17 2.7405377579890056 2.7405377579890047" Properties=species:S:1:pos:R:3 n_minim_iter=2 pbc="T T T"
Si       0.00000000       0.00000000       0.00000000
Si       1.37026888       1.37026888       1.37026888
