22
Lattice="5.476939133850934 -0.16148823617922356 -0.01940788067678005 2.6639046214830864 6.31313528337236 0.116715030493894 0.9131944864892476 0.6334479053991305 15.941010204098182" Properties=species:S:1:pos:R:3 unique_starting_index=40 config_type=initial n_minim_iter=1 energy=-3596.8520173983975 free_energy=-3596.8520173983975 pbc="T T T"
Si       5.40456217       2.69964703      12.22285400
Si       1.51600327       3.78792142       4.93942269
Si       5.15207986       0.78300786       7.19299976
Si       3.88075747       3.79453221      13.20376783
Si       3.49301571       2.66915237      14.96394420
Si       7.37571855       5.27668837       6.32379424
Si       5.78749627       2.66244874       1.74852242
Si       5.00540706       4.64952309       9.20733042
Si       4.11618539       2.43372233       0.43959475
Si       4.29762946       4.61610809      15.12511252
Si       5.09793157       2.73209062      10.12806699
Si       4.54148877       4.39468184      11.28096552
Si       2.14781933       3.18399153       0.74135552
Si       0.73334723      -0.64979098       8.12038494
Si       1.51064624       2.71383290      15.74405260
Si       6.75991384       5.57650485       8.34492981
Si       3.32472406       2.60064861       4.32950022
Si       3.86070689       6.22658230       6.24404241
Si       5.36820033       2.81619046       3.82732132
Si       5.54183048       0.84169605       9.26440993
Si       5.47910934       3.04242233      14.31597537
Si       5.40353036       1.13659022       5.11767783
22
Lattice="5.477816546071531 -0.16069510924549343 -0.018044662831280298 2.6652785014554063 6.3133451360550215 0.11605551153366128 0.9172761996322992 0.630469008267186 15.930789052393685" Properties=species:S:1:pos:R:3 unique_starting_index=40 config_type=initial n_minim_iter=2 stress="-0.0010179653318312708 -7.729147559533109e-05 4.968199054442533e-05 -7.729147559533109e-05 -0.0011733255228830325 0.0010624381014445834 4.968199054442533e-05 0.0010624381014445834 -0.0032932397719500858" pbc="T T T"
Si       5.40882079       2.69793665      12.21561070
Si       1.51801056       3.78706702       4.93584810
Si       5.15485527       0.78230893       7.18931887
Si       3.88508619       3.79249687      13.19539184
Si       3.49751151       2.66668372      14.95464951
Si       7.37910531       5.27630126       6.32044849
Si       5.78926539       2.66287200       1.74838113
Si       5.00918839       4.64841360       9.20153956
Si       4.11726203       2.43421359       0.43986518
Si       4.30264697       4.61372633      15.11545567
Si       5.10158016       2.73071658      10.12220740
Si       4.54553739       4.39302603      11.27396473
Si       2.14884410       3.18411991       0.74079186
Si       0.73530206      -0.65118144       8.11539275
Si       1.51511578       2.71092105      15.73359629
Si       6.76387102       5.57569464       8.34000825
Si       3.32668411       2.60021866       4.32702322
Si       3.86368114       6.22581019       6.23991966
Si       5.37053914       2.81612982       3.82549572
Si       5.54508973       0.84071123       9.25958922
Si       5.48399036       3.04033157      14.30751351
Si       5.40574112       1.13630854       5.11555238
22
Lattice="5.479264507456874 -0.1601583077188641 -0.017218995649944672 2.666653533377725 6.314687072376367 0.11460042023714116 0.9198581745225867 0.6260023322583543 15.932765560333047" Properties=species:S:1:pos:R:3 unique_starting_index=40 config_type=initial n_minim_iter=3 stress="0.003938807361681522 0.0001214110586711939 0.0008208261869858363 0.0001214110586711939 0.0021208799871733487 -0.0013818792745791595 0.0008208261869858363 -0.0013818792745791595 0.00032931443520349936" pbc="T T T"
Si       5.41238900       2.69526425      12.21697268
Si       1.51954116       3.78638992       4.93556613
Si       5.15745171       0.78082485       7.19061396
Si       3.88828580       3.78981197      13.19649178
Si       3.50075025       2.66310654      14.95639788
Si       7.38239887       5.27598414       6.32070570
Si       5.79134736       2.66341235       1.74882823
Si       5.01243507       4.64717006       9.20181204
Si       4.11857758       2.43500665       0.43987360
Si       4.30642516       4.61065297      15.11665078
Si       5.10461033       2.72862742      10.12334713
Si       4.54873241       4.39094544      11.27484080
Si       2.14989287       3.18474909       0.74029857
Si       0.73651512      -0.65354285       8.11674415
Si       1.51811779       2.70691730      15.73482451
Si       6.76750304       5.57487359       8.34032425
Si       3.32844978       2.59973634       4.32734282
Si       3.86610666       6.22551645       6.23968004
Si       5.37303060       2.81601923       3.82580684
Si       5.54795743       0.83879108       9.26133690
Si       5.48797780       3.03717558      14.30938295
Si       5.40790447       1.13550020       5.11676317
22
Lattice="5.4758445946931635 -0.15866931239510224 -0.016444604725333177 2.6666911230977686 6.31385467337972 0.11253984982422278 0.9215504623256627 0.6199260759451423 15.937148938941558" Properties=species:S:1:pos:R:3 unique_starting_index=40 config_type=initial n_minim_iter=4 stress="-0.0065912070677884545 0.001529540778577699 0.0014991204083419929 0.001529540778577699 0.0008451085623544459 -0.0030394975853145875 0.0014991204083419929 -0.0030394975853145875 0.00087286090079857" pbc="T T T"
Si       5.41181723       2.69085131      12.21929167
Si       1.52036072       3.78374709       4.93558796
Si       5.15588624       0.77888246       7.19261798
Si       3.88811111       3.78534515      13.19922461
Si       3.50092959       2.65759608      14.96054694
Si       7.37977255       5.27371169       6.32113382
Si       5.78874208       2.66361115       1.74976402
Si       5.01226573       4.64437813       9.20214982
Si       4.11631497       2.43572936       0.43991682
Si       4.30697371       4.60530627      15.11980296
Si       5.10324437       2.72496486      10.12542665
Si       4.54824478       4.38666299      11.27729982
Si       2.14963487       3.18456486       0.73971847
Si       0.73652523      -0.65608008       8.11947999
Si       1.52027391       2.70054431      15.73752497
Si       6.76631985       5.57201174       8.34104196
Si       3.32764592       2.59828691       4.32824133
Si       3.86532790       6.22284373       6.24052272
Si       5.37195418       2.81501862       3.82618516
Si       5.54585766       0.83684092       9.26447194
Si       5.48800844       3.03209338      14.31370082
Si       5.40502504       1.13449527       5.11890991
22
Lattice="5.478786563902766 -0.15885330832931166 -0.01760348475480487 2.6677924739771868 6.310551762806912 0.11383507124708549 0.9187755728834769 0.624176990161549 15.938143737706378" Properties=species:S:1:pos:R:3 unique_starting_index=40 config_type=initial n_minim_iter=5 stress="0.0004697245808717599 0.0020197209703108664 -0.001101234646755054 0.0020197209703108664 -0.0009464017064937529 0.00044100383986020556 -0.001101234646755054 0.00044100383986020556 8.367286166007225e-05" pbc="T T T"
Si       5.41264650       2.69221515      12.21879711
Si       1.52013515       3.78289140       4.93656555
Si       5.15756777       0.77994939       7.19186974
Si       3.88668811       3.78762242      13.20041837
Si       3.49940009       2.66045765      14.96199353
Si       7.38177791       5.27185787       6.32120267
Si       5.79138110       2.66244355       1.75023324
Si       5.01341957       4.64500771       9.20177020
Si       4.11788825       2.43488986       0.44018868
Si       4.30596722       4.60769038      15.12138089
Si       5.10344469       2.72587530      10.12533815
Si       4.54779730       4.38736831      11.27880503
Si       2.15053499       3.18343551       0.74045635
Si       0.73506249      -0.65323068       8.11975353
Si       1.51809608       2.70361316      15.73801997
Si       6.76829237       5.57122304       8.34134723
Si       3.32842093       2.59801263       4.32888442
Si       3.86492113       6.22151346       6.24303409
Si       5.37508783       2.81395269       3.82592383
Si       5.54674305       0.83928530       9.26431603
Si       5.48871164       3.03408014      14.31510676
Si       5.40619058       1.13507154       5.11884272
22
Lattice="5.478682610366134 -0.16166952005370885 -0.01646795549509864 2.6644839943463827 6.309268383308344 0.11437215747021691 0.9217217111845696 0.623690519534408 15.93771860818921" Properties=species:S:1:pos:R:3 unique_starting_index=40 config_type=initial n_minim_iter=6 stress="-0.00047764128144155566 -0.0013376522406404578 0.0005601089245018591 -0.0013376522406404578 0.0004690036302705318 0.0003989949152937655 0.0005601089245018591 0.0003989949152937655 -0.0004240511428739241" pbc="T T T"
Si       5.41376506       2.68928029      12.21921493
Si       1.51927479       3.78199811       4.93662961
Si       5.15848731       0.77731916       7.19252890
Si       3.88715512       3.78578444      13.20077626
Si       3.50113377       2.65878389      14.96221990
Si       7.37994428       5.26779591       6.32228963
Si       5.79021622       2.65943623       1.75151928
Si       5.01305644       4.64267411       9.20185564
Si       4.11658738       2.43301704       0.44122862
Si       4.30656939       4.60581216      15.12176021
Si       5.10375110       2.72325423      10.12573107
Si       4.54752669       4.38503969      11.27947143
Si       2.14885033       3.18256551       0.74098450
Si       0.73715591      -0.65377057       8.11985555
Si       1.52007051       2.70288534      15.73752543
Si       6.76697505       5.56780543       8.34215800
Si       3.32807614       2.59632685       4.32951010
Si       3.86252933       6.21964275       6.24398747
Si       5.37464615       2.81089165       3.82689535
Si       5.54795285       0.83663371       9.26515629
Si       5.49008172       3.03110792      14.31581953
Si       5.40610909       1.13234533       5.11983075
22
Lattice="5.47848354977546 -0.16102370964182494 -0.016628619391758057 2.6649858727385802 6.304724138290866 0.11202987909634975 0.9211196763111079 0.6176327185775644 15.938480867135711" Properties=species:S:1:pos:R:3 unique_starting_index=40 config_type=initial n_minim_iter=7 stress="-4.038015129015412e-05 -0.00042222610949931727 0.000213344460744482 -0.00042222610949931727 -0.002041126645852326 -0.0005326061771988269 0.000213344460744482 -0.0005326061771988269 -0.0001508743769186298" pbc="T T T"
Si       5.41331357       2.68332940      12.21863537
Si       1.52007499       3.77688260       4.93539765
Si       5.15806488       0.77503941       7.19241460
Si       3.88672061       3.77848604      13.20045752
Si       3.50180340       2.65237309      14.96214381
Si       7.37855701       5.26060479       6.31972556
Si       5.79027387       2.65690786       1.75042129
Si       5.01390026       4.63681437       9.19837782
Si       4.11715077       2.43235843       0.44105790
Si       4.30637674       4.59838244      15.12121423
Si       5.10239503       2.71857873      10.12404636
Si       4.54665501       4.37791949      11.27887893
Si       2.14839286       3.18093599       0.74034093
Si       0.73747112      -0.65688875       8.12236210
Si       1.51988032       2.69570487      15.73744762
Si       6.76671081       5.56108134       8.33946685
Si       3.32936559       2.59316473       4.32909419
Si       3.86201932       6.21371479       6.24274528
Si       5.37563257       2.80633571       3.82622958
Si       5.54710604       0.83387972       9.26529958
Si       5.48960447       3.02367533      14.31533880
Si       5.40440050       1.13020127       5.11962978
22
Lattice="5.477985684324218 -0.1601909555882179 -0.01703056964420689 2.6658096127915862 6.3085195942808365 0.11277923208360281 0.9200427397469655 0.6205055919997596 15.937057912976398" Properties=species:S:1:pos:R:3 unique_starting_index=40 config_type=initial n_minim_iter=8 stress="-0.00034717777899937515 0.00030042430455013363 0.00027291606999790943 0.00030042430455013363 0.0014331520997816027 0.0010414845260409231 0.00027291606999790943 0.0010414845260409231 0.00010472363746992195" pbc="T T T"
Si       5.41231836       2.68751880      12.21744954
Si       1.52065016       3.77956295       4.93536995
Si       5.15726952       0.77746835       7.19176761
Si       3.88616095       3.78297268      13.19968921
Si       3.50138105       2.65684337      14.96097261
Si       7.37800925       5.26497329       6.31908844
Si       5.79014715       2.65932327       1.75018629
Si       5.01408765       4.64142248       9.19716763
Si       4.11739943       2.43486849       0.44139062
Si       4.30581521       4.60422485      15.12041629
Si       5.10122348       2.72287973      10.12289107
Si       4.54592729       4.38264253      11.27825830
Si       2.14852290       3.18351311       0.74083027
Si       0.73670195      -0.65595290       8.12184226
Si       1.51914703       2.69986507      15.73636876
Si       6.76651238       5.56630430       8.33863782
Si       3.32988188       2.59575921       4.32900503
Si       3.86182342       6.21865487       6.24318871
Si       5.37569594       2.80879114       3.82585334
Si       5.54595916       0.83685085       9.26418923
Si       5.48858947       3.02813435      14.31387865
Si       5.40315008       1.13218613       5.11913712
22
Lattice="5.479765945186495 -0.16009823853926772 -0.020184468158872863 2.666704876595938 6.308805939598249 0.1074922516602371 0.9108838333017226 0.6112514644737301 15.933117873247294" Properties=species:S:1:pos:R:3 unique_starting_index=40 config_type=initial n_minim_iter=9 stress="-6.090059514966309e-05 -0.0008156416282162344 -0.0015838567203772936 -0.0008156416282162344 0.000592239799751088 -0.0010888666336380513 -0.0015838567203772936 -0.0010888666336380513 -0.0011728925435610263" pbc="T T T"
Si       5.40606377       2.68086900      12.20993688
Si       1.52004018       3.77556593       4.93116345
Si       5.15437214       0.77226366       7.18807200
Si       3.88007575       3.77480504      13.19320156
Si       3.49534116       2.64919805      14.95479746
Si       7.37630575       5.26079881       6.30968802
Si       5.79131588       2.65758569       1.74448233
Si       5.01238066       4.63544922       9.18752292
Si       4.11930498       2.43677799       0.43840157
Si       4.29874674       4.59710050      15.11305665
Si       5.09491150       2.71962644      10.11548905
Si       4.53965423       4.37626963      11.27077152
Si       2.14831160       3.18499181       0.73835425
Si       0.73137105      -0.66026750       8.12111406
Si       1.51061526       2.69131567      15.73143090
Si       6.76399985       5.56152936       8.32803450
Si       3.33114159       2.59346801       4.32528941
Si       3.85719283       6.21514156       6.23734252
Si       5.37637629       2.80503962       3.81980818
Si       5.54158889       0.83223668       9.25852660
Si       5.48146196       3.01943962      14.30485369
Si       5.39934567       1.12785053       5.11496688
22
Lattice="5.480620798343262 -0.1588745298011347 -0.018300929503985035 2.6685549329803075 6.308059633564545 0.10907112053073596 0.9167138525107035 0.6128901747660408 15.937482908237826" Properties=species:S:1:pos:R:3 unique_starting_index=40 config_type=initial n_minim_iter=10 stress="0.0005220653049870417 -4.8083095885383055e-05 0.0011899989462051466 -4.8083095885383055e-05 -0.0009961689596467056 0.00032811593430482163 0.0011899989462051466 0.00032811593430482163 0.0005255798896221955" pbc="T T T"
Si       5.41140164       2.68281447      12.21488109
Si       1.52358818       3.77504231       4.93325192
Si       5.15758810       0.77347621       7.19214502
Si       3.88635723       3.77586685      13.19832160
Si       3.50205491       2.65120215      14.96020328
Si       7.38076193       5.26179509       6.31413407
Si       5.79374592       2.65811800       1.74713034
Si       5.01815214       4.63604193       9.19127908
Si       4.12082974       2.43805135       0.44041073
Si       4.30595500       4.59893285      15.11913062
Si       5.09909399       2.72212509      10.11980256
Si       4.54483228       4.37742077      11.27558290
Si       2.14960739       3.18553299       0.73987064
Si       0.73399505      -0.65908172       8.12362994
Si       1.51711655       2.69278080      15.73625974
Si       6.76918342       5.56250661       8.33242385
Si       3.33484311       2.59408388       4.32802277
Si       3.86063054       6.21508799       6.24125538
Si       5.37958848       2.80516029       3.82282905
Si       5.54561395       0.83447548       9.26285016
Si       5.48779223       3.02129855      14.31025177
Si       5.40122933       1.12881549       5.11836430
22
Lattice="5.480478882859017 -0.15589151495667558 -0.020821804039281383 2.6720362885369764 6.314031647841884 0.10612692644258229 0.9095895178119828 0.6096293837752751 15.933996205791635" Properties=species:S:1:pos:R:3 unique_starting_index=40 config_type=initial n_minim_iter=11 stress="0.00034457895946717905 8.150576359862121e-05 -0.00015873939045596866 8.150576359862121e-05 -0.0004891616763242449 0.00012547722511399115 -0.00015873939045596866 0.00012547722511399115 -0.00023441537247613844" pbc="T T T"
Si       5.40569747       2.68485543      12.20746481
Si       1.52608491       3.77491095       4.93020729
Si       5.15235205       0.77412771       7.18876513
Si       3.88309233       3.77659259      13.19328459
Si       3.49651956       2.65227395      14.95657280
Si       7.38057646       5.26886773       6.30773644
Si       5.79606204       2.66166178       1.74342092
Si       5.01849198       4.63833105       9.18356497
Si       4.12200454       2.44542369       0.43776626
Si       4.30255376       4.60130268      15.11433522
Si       5.09313566       2.72754945      10.11492370
Si       4.54019638       4.38029953      11.27017715
Si       2.15162734       3.19113514       0.73842328
Si       0.73022135      -0.66213343       8.12333937
Si       1.51218064       2.69228785      15.73161395
Si       6.76743449       5.56706617       8.32482730
Si       3.33817654       2.59664808       4.32592659
Si       3.85977523       6.21885061       6.23726101
Si       5.38125081       2.80583401       3.81916685
Si       5.54039441       0.83716579       9.25859207
Si       5.48244111       3.02280793      14.30372733
Si       5.39534348       1.12974576       5.11484557
22
Lattice="5.480235636492142 -0.15426968731751173 -0.022011373290753436 2.6738833420609254 6.318376843984085 0.10419524241550819 0.9061828211734224 0.6069583656469805 15.930430199017344" Properties=species:S:1:pos:R:3 unique_starting_index=40 config_type=initial n_minim_iter=12 stress="0.0004869443206087778 -0.00017834363981022037 -0.0001845229889249909 -0.00017834363981022037 -0.00032421176713548163 0.0003269395825937776 -0.0001845229889249909 0.0003269395825937776 -0.0007787329931700187" pbc="T T T"
Si       5.40311919       2.68501229      12.20235056
Si       1.52864981       3.77376179       4.92749162
Si       5.14805542       0.77357261       7.18698154
Si       3.88115951       3.77710410      13.19005052
Si       3.49358884       2.65348050      14.95295539
Si       7.37913761       5.27332417       6.30275305
Si       5.79878130       2.66354521       1.74135806
Si       5.01925635       4.63933946       9.17779368
Si       4.12417982       2.45062740       0.43585447
Si       4.30136972       4.60255473      15.10951300
Si       5.08886881       2.73048234      10.11019528
Si       4.53674885       4.38265397      11.26587621
Si       2.15241782       3.19552164       0.73717338
Si       0.72671673      -0.66355887       8.12204447
Si       1.51012458       2.69266117      15.72726005
Si       6.76736139       5.56970492       8.31979583
Si       3.34140522       2.59801678       4.32492375
Si       3.86077507       6.22153369       6.23382695
Si       5.38416812       2.80479717       3.81748879
Si       5.53687720       0.83899407       9.25555724
Si       5.47930985       3.02363634      14.29925199
Si       5.39033785       1.12885458       5.11282050
22
Lattice="5.480230714244523 -0.14971808327894817 -0.023379455682975624 2.679285273397807 6.325050699991201 0.10142296790137796 0.9025992704360158 0.6029720984572106 15.92768658597076" Properties=species:S:1:pos:R:3 unique_starting_index=40 config_type=initial n_minim_iter=13 stress="0.0004099404324698428 0.00019485485916265105 3.636366846291979e-05 0.00019485485916265105 0.00031728093903278336 0.0001802849059994759 3.636366846291979e-05 0.0001802849059994759 -0.00019551563863935006" pbc="T T T"
Si       5.40157527       2.68701723      12.19797558
Si       1.53545739       3.77143746       4.92446904
Si       5.14267914       0.77509958       7.18527805
Si       3.88072080       3.77908329      13.18733115
Si       3.49209950       2.65691001      14.94972403
Si       7.38182034       5.28262417       6.29527812
Si       5.80535231       2.66805970       1.73960176
Si       5.02230696       4.64279605       9.17043582
Si       4.12979920       2.45943050       0.43389201
Si       4.30242977       4.60587424      15.10424318
Si       5.08413773       2.73491126      10.10420616
Si       4.53384186       4.38705684      11.26239092
Si       2.15544613       3.20280468       0.73483722
Si       0.72403043      -0.66471835       8.12055088
Si       1.50925776       2.69403443      15.72340750
Si       6.76822712       5.57484488       8.31540043
Si       3.34838288       2.60064219       4.32480324
Si       3.86242521       6.22605214       6.23023582
Si       5.39163572       2.80394218       3.81602524
Si       5.53256997       0.84382524       9.25282954
Si       5.47699701       3.02640854      14.29470365
Si       5.38375648       1.12711106       5.11220874
22
Lattice="5.482475157734658 -0.14391535837110217 -0.02665016874133396 2.687291546574234 6.336112331796134 0.09281399598250181 0.8936431993817927 0.5873991036341736 15.921304245792898" Properties=species:S:1:pos:R:3 unique_starting_index=40 config_type=initial n_minim_iter=14 stress="0.000567631573910471 0.00014897641368734 7.808590645969671e-05 0.00014897641368734 0.0026988452841465293 -0.0008315327938605493 7.808590645969671e-05 -0.0008315327938605493 0.0012059600749034264" pbc="T T T"
Si       5.39656805       2.68416022      12.18519601
Si       1.54778953       3.76496318       4.91806686
Si       5.13235188       0.77224487       7.18247509
Si       3.87718534       3.77574899      13.17606199
Si       3.48952965       2.65496811      14.94164523
Si       7.38544397       5.29180625       6.27725948
Si       5.81814810       2.67299414       1.73569407
Si       5.02321135       4.64347213       9.15405635
Si       4.13783178       2.47280602       0.42988528
Si       4.29974824       4.60442644      15.09077322
Si       5.07496284       2.73374113      10.09322212
Si       4.52678106       4.38575142      11.25465212
Si       2.16265093       3.21442465       0.72683702
Si       0.71697456      -0.67030913       8.11926924
Si       1.50572784       2.68853075      15.71360635
Si       6.77271743       5.57868140       8.30127354
Si       3.36080644       2.60131660       4.32286097
Si       3.86273236       6.23052256       6.21930001
Si       5.40569389       2.79565273       3.81165126
Si       5.52509789       0.84334752       9.24473651
Si       5.47225997       3.02109056      14.28151010
Si       5.37199473       1.11925317       5.10650886
22
Lattice="5.481337724349806 -0.14085803944743655 -0.029322437902087013 2.690328233397477 6.3411368084188044 0.08565170390990033 0.8856402902047297 0.573530537727401 15.926914305943088" Properties=species:S:1:pos:R:3 unique_starting_index=40 config_type=initial n_minim_iter=15 stress="3.078808876548988e-05 0.00010298540919150496 -0.0006625465750123348 0.00010298540919150496 0.002124388927841927 -0.0011124613504410311 -0.0006625465750123348 -0.0011124613504410311 0.0031189282343775655" pbc="T T T"
Si       5.38845442       2.67896086      12.18186829
Si       1.55865137       3.75705900       4.91753958
Si       5.12109646       0.76799676       7.18098806
Si       3.86803960       3.76978131      13.17723040
Si       3.48619388       2.65213528      14.94447481
Si       7.37976273       5.29338136       6.26821234
Si       5.82572776       2.67359204       1.73295429
Si       5.01842198       4.63713918       9.14870483
Si       4.14123130       2.48293477       0.42769935
Si       4.29334421       4.59944991      15.09083580
Si       5.06254693       2.73196400      10.08989399
Si       4.51720693       4.38071087      11.25456018
Si       2.16678786       3.22234759       0.72055030
Si       0.71200603      -0.67445251       8.12307475
Si       1.50180044       2.68328137      15.71456740
Si       6.77021352       5.57517684       8.29355417
Si       3.37102715       2.59857135       4.32478472
Si       3.85855476       6.23130852       6.21678753
Si       5.41438148       2.78399555       3.81120909
Si       5.51486881       0.83912098       9.24402785
Si       5.46662786       3.01271254      14.28107208
Si       5.35576212       1.10687313       5.10626289
22
Lattice="5.479922276930426 -0.13954937918992832 -0.03156038796731398 2.6912588308688377 6.34741440596474 0.07808455312439905 0.8785923989158034 0.5581391701158839 15.928122511201632" Properties=species:S:1:pos:R:3 unique_starting_index=40 config_type=initial n_minim_iter=16 stress="-0.00036207611008692343 0.00020854853482441267 4.2072901987397336e-05 0.00020854853482441267 0.002363063427174676 -0.0015763957736157704 4.2072901987397336e-05 -0.0015763957736157704 0.0015011453211375393" pbc="T T T"
Si       5.37905406       2.67322432      12.17685687
Si       1.56709064       3.75135668       4.91599033
Si       5.11315166       0.76094744       7.17980314
Si       3.85897464       3.76230210      13.17309306
Si       3.48120689       2.64535422      14.94328598
Si       7.37344841       5.29212629       6.25886283
Si       5.83005899       2.67379702       1.72866029
Si       5.01246758       4.63140551       9.14157518
Si       4.14590470       2.49237558       0.42239948
Si       4.28753621       4.59157228      15.08728169
Si       5.05141653       2.72662526      10.08487484
Si       4.50811510       4.37485463      11.25068617
Si       2.16797825       3.23039984       0.71602422
Si       0.70811218      -0.67960401       8.12402932
Si       1.49837773       2.67605898      15.71105455
Si       6.76419870       5.57040056       8.28277686
Si       3.37840396       2.59482144       4.32498024
Si       3.85217812       6.23237186       6.21231014
Si       5.42269263       2.77283189       3.81024968
Si       5.50486817       0.83263228       9.24183488
Si       5.46175407       3.00372519      14.27840433
Si       5.33926878       1.09510057       5.10057749
22
Lattice="5.479941041773996 -0.14083903910626563 -0.03288543148045351 2.6898953650935526 6.352779613518363 0.07357222610223607 0.8743068598529037 0.5489582840057953 15.924685612853098" Properties=species:S:1:pos:R:3 unique_starting_index=40 config_type=initial n_minim_iter=17 stress="3.840218803355456e-06 0.00046270322923879355 0.0009924261300624131 0.00046270322923879355 0.002158441304863372 -0.0018421898851881285 0.0009924261300624131 -0.0018421898851881285 -0.00030559725036281496" pbc="T T T"
Si       5.37051415       2.67145898      12.17040154
Si       1.57858319       3.74639918       4.91598678
Si       5.10585570       0.75348151       7.17633640
Si       3.84995803       3.75921554      13.16733746
Si       3.47910304       2.64436471      14.93837725
Si       7.36709878       5.28932573       6.25118956
Si       5.83608384       2.67176650       1.72704642
Si       5.00635207       4.62745249       9.13400229
Si       4.15147103       2.50357175       0.41772491
Si       4.28442035       4.58759691      15.08200123
Si       5.04054412       2.72251870      10.07866673
Si       4.49868524       4.37258080      11.24600436
Si       2.17024724       3.24049332       0.71438432
Si       0.70451525      -0.68296028       8.12512839
Si       1.49883997       2.67555338      15.70363301
Si       6.75885876       5.56531058       8.27108766
Si       3.38881352       2.58989416       4.32665236
Si       3.84273060       6.23704321       6.20577926
Si       5.43737282       2.75848060       3.80969073
Si       5.49520763       0.82849402       9.23898399
Si       5.45924433       3.00056129      14.27162746
Si       5.31956602       1.07654903       5.09540816
22
Lattice="5.476978185232033 -0.1467130429267968 -0.038415325057446055 2.6815564026660113 6.353451908376808 0.06538031368413995 0.8565984466536978 0.5347099664917645 15.91910355201354" Properties=species:S:1:pos:R:3 unique_starting_index=40 config_type=initial n_minim_iter=18 stress="-0.0008884133825477234 3.9568028746374026e-05 -0.00010544635422830249 3.9568028746374026e-05 0.0011609169737833514 -0.0015798286996909162 -0.00010544635422830249 -0.0015798286996909162 0.0017084635334863494" pbc="T T T"
Si       5.34448633       2.66295488      12.15826584
Si       1.59030552       3.73675552       4.91627015
Si       5.08739777       0.73798851       7.16645265
Si       3.82258145       3.75070373      13.15747707
Si       3.46399005       2.63639247      14.92862053
Si       7.34554244       5.27331599       6.23340891
Si       5.83724003       2.66277701       1.72202723
Si       4.98468096       4.61540123       9.12037545
Si       4.15309567       2.51508398       0.41186071
Si       4.26495282       4.57567466      15.06786650
Si       5.01367028       2.70931460      10.06731432
Si       4.47116410       4.36486008      11.23480284
Si       2.17489065       3.25201280       0.71359453
Si       0.69151744      -0.68679776       8.12331518
Si       1.48426510       2.67057509      15.69257906
Si       6.73480416       5.54640331       8.25409034
Si       3.40262640       2.57694553       4.32543108
Si       3.82054751       6.23519753       6.19522794
Si       5.45049718       2.72825219       3.80755805
Si       5.46970775       0.81816178       9.23240809
Si       5.44131793       2.99418082      14.25360706
Si       5.27826223       1.04380330       5.08053071
22
Lattice="5.476390315163141 -0.1550655038444188 -0.04143686479506978 2.6713653525765637 6.3463832602384205 0.06407399324369947 0.8466807775521845 0.5335423119320741 15.912105200360822" Properties=species:S:1:pos:R:3 unique_starting_index=40 config_type=initial n_minim_iter=19 stress="-0.0009276392505228436 -0.0009695714041797908 -0.0002561046426515879 -0.0009695714041797908 -0.0012080838705548482 -0.0006795402907491987 -0.0002561046426515879 -0.0006795402907491987 0.0009933091948597455" pbc="T T T"
Si       5.32429815       2.66031913      12.14831064
Si       1.60175077       3.72995804       4.91941718
Si       5.07163283       0.72660189       7.15893783
Si       3.80410193       3.74920415      13.14638883
Si       3.45719538       2.63218343      14.92189604
Si       7.32930184       5.25356295       6.22392731
Si       5.83988603       2.65160037       1.72152803
Si       4.96438210       4.60423652       9.11458698
Si       4.15635465       2.51663917       0.40884040
Si       4.25202246       4.57470137      15.05387856
Si       4.99458991       2.70260784      10.05939850
Si       4.45054653       4.36071441      11.22718136
Si       2.17745892       3.25590786       0.71873569
Si       0.68407552      -0.68484496       8.12006830
Si       1.47285871       2.67595253      15.68432063
Si       6.71578425       5.52823298       8.24607091
Si       3.41661731       2.56338748       4.32524495
Si       3.80163119       6.23110041       6.18900499
Si       5.46480383       2.69981671       3.80882914
Si       5.45211306       0.80832417       9.22648692
Si       5.43219493       2.99741462      14.24585201
Si       5.24356159       1.00904784       5.06884564
22
Lattice="5.476789351555282 -0.16039771191325308 -0.04436075565802721 2.665295662682488 6.343843407244887 0.06964143725600677 0.838071402740101 0.5503299708011979 15.899688648108791" Properties=species:S:1:pos:R:3 unique_starting_index=40 config_type=initial n_minim_iter=20 stress="0.0021256975593790654 -0.0013892200916314785 -0.0007005247865293534 -0.0013892200916314785 -0.00039530131679808405 -0.00028274486458360255 -0.0007005247865293534 -0.00028274486458360255 0.002315349361443723" pbc="T T T"
Si       5.30766524       2.67464979      12.14105676
Si       1.61444355       3.73412031       4.92271998
Si       5.05796806       0.72847223       7.14895234
Si       3.79008465       3.76397188      13.13677492
Si       3.45061234       2.64368191      14.91260580
Si       7.31929732       5.24771162       6.22313030
Si       5.84479700       2.64914884       1.72170726
Si       4.94374949       4.61256710       9.11215584
Si       4.15735982       2.51975825       0.40924873
Si       4.24260618       4.59812399      15.03978520
Si       4.98091935       2.70896131      10.05059419
Si       4.43692807       4.37582303      11.21438063
Si       2.18042457       3.25610479       0.72632245
Si       0.67644639      -0.67485047       8.11039210
Si       1.47167412       2.70073072      15.67771188
Si       6.70260042       5.52475267       8.24296663
Si       3.42823376       2.55757368       4.32383710
Si       3.78756449       6.23972778       6.18730596
Si       5.48202397       2.68105747       3.81399096
Si       5.43808512       0.80753783       9.21681233
Si       5.42650437       3.02392131      14.23428880
Si       5.21315313       0.98207080       5.05296104
22
Lattice="5.47894228824251 -0.16138026589862303 -0.04249860877062237 2.6653470935492836 6.346408720327157 0.07571389593599216 0.8440919684699738 0.5635706327675487 15.889790876267316" Properties=species:S:1:pos:R:3 unique_starting_index=40 config_type=initial n_minim_iter=21 stress="0.002139426695490788 -0.0006428471916928651 -5.045894467514252e-05 -0.0006428471916928651 0.002352814675561595 0.0001534797480984133 -5.045894467514252e-05 0.0001534797480984133 0.001300180368775291" pbc="T T T"
Si       5.31147895       2.68699604      12.13832892
Si       1.62323218       3.74122860       4.92280470
Si       5.05882487       0.73381756       7.14451067
Si       3.79428356       3.77719453      13.13288747
Si       3.46102938       2.65539432      14.90484483
Si       7.32465643       5.25363783       6.23019876
Si       5.84814945       2.65238734       1.72529760
Si       4.94321541       4.62555503       9.11373187
Si       4.16046652       2.52262123       0.41165085
Si       4.24905014       4.61691608      15.03561763
Si       4.98510215       2.71460794      10.04742696
Si       4.44231978       4.38904346      11.20754448
Si       2.18553157       3.25619203       0.73037906
Si       0.67630103      -0.66846544       8.10387675
Si       1.47719213       2.71842067      15.67209923
Si       6.70548038       5.53000482       8.24605819
Si       3.43597884       2.55933734       4.32267664
Si       3.78848651       6.24964368       6.18743894
Si       5.49179227       2.67825206       3.81962405
Si       5.44062414       0.81136444       9.21289320
Si       5.43577824       3.04284454      14.23120129
Si       5.20656331       0.97450392       5.04585994
