16
Lattice="9.626254513814406 -0.5702581081807687 -0.018174292992221033 1.4957109695413136 8.368032205145958 0.7857243643381907 2.5986616205242385 3.284955766642218 8.76334485582808" Properties=species:S:1:pos:R:3 unique_starting_index=30 config_type=initial n_minim_iter=1 energy=-2619.503677579863 free_energy=-2619.503677579863 pbc="T T T"
Si       8.51967764       5.67028716       5.69284458
Si       5.20094947       5.41244271       3.83805035
Si       3.47156622       5.04447802       2.72117116
Si      10.24906088       6.03825185       6.80972377
Si       8.60848202       5.05626343       7.71837131
Si       5.11214508       6.02646643       1.81252361
Si       5.94218108       4.87008094       0.24050773
Si       7.77844603       6.21264892       9.29038720
Si       3.50943227       6.66853700       4.07562498
Si      10.21119484       4.41419287       5.45526995
Si      11.41104313       4.92113651       3.78633997
Si       2.30958397       6.16159336       5.74455496
Si       3.46211531       4.68455616       4.81169084
Si      10.25851179       6.39817370       4.71920409
Si       5.79938789       8.02616903       1.70433895
Si       7.92123922       3.05656084       7.82655597
16
Lattice="9.625865678431401 -0.5707918796830806 -0.017661016343253625 1.4951893165468617 8.367364504271926 0.7859502793301802 2.598830112648844 3.284769732609823 8.763008257873" Properties=species:S:1:pos:R:3 unique_starting_index=30 config_type=initial n_minim_iter=2 stress="-0.0004507759931645863 0.00023640185389211813 0.00014025899384290913 0.00023640185389211813 -6.974343792181766e-05 6.855875811581062e-05 0.00014025899384290913 6.855875811581062e-05 -0.00047165493779195207" pbc="T T T"
Si       8.51928270       5.66950632       5.69308493
Si       5.20060241       5.41183604       3.83821259
Si       3.47128355       5.04397530       2.72128640
Si      10.24860156       6.03736706       6.81001112
Si       8.60822753       5.05555623       7.71846394
Si       5.11165757       6.02578613       1.81283358
Si       5.94164215       4.86938934       0.24093917
Si       7.77824296       6.21195302       9.29035835
Si       3.50910092       6.66795600       4.07570502
Si      10.21078418       4.41338635       5.45559250
Si      11.41044689       4.92019653       3.78683120
Si       2.30943821       6.16114583       5.74446632
Si       3.46194314       4.68412617       4.81169341
Si      10.25794196       6.39721619       4.71960411
Si       5.79875148       8.02527650       1.70471501
Si       7.92113363       3.05606586       7.82658251
16
Lattice="9.626658281315677 -0.5717772737741248 -0.01758224267903437 1.4944340195389951 8.366884636208546 0.7860260839642902 2.598757720050929 3.284382343554422 8.763612996580148" Properties=species:S:1:pos:R:3 unique_starting_index=30 config_type=initial n_minim_iter=3 stress="0.0005009182228612069 -0.0005562508732039723 0.00015586679383762617 -0.0005562508732039723 -5.0367763372901737e-05 0.00010124057451591893 0.00015586679383762617 0.00010124057451591893 0.0006909361798828633" pbc="T T T"
Si       8.51939310       5.66839775       5.69355676
Si       5.20045692       5.41109196       3.83850007
Si       3.47110755       5.04340615       2.72142903
Si      10.24874248       6.03608356       6.81062781
Si       8.60841662       5.05441862       7.71904403
Si       5.11143340       6.02507108       1.81301280
Si       5.94158657       4.86859386       0.24104400
Si       7.77826345       6.21089585       9.29101284
Si       3.50871393       6.66740065       4.07594668
Si      10.21113610       4.41208906       5.45611016
Si      11.41081155       4.91883428       3.78712734
Si       2.30903847       6.16065543       5.74492949
Si       3.46171917       4.68356296       4.81210654
Si      10.25813085       6.39592674       4.71995030
Si       5.79837339       8.02432668       1.70483802
Si       7.92147663       3.05516302       7.82721882
16
Lattice="9.62639729760831 -0.5715798171002321 -0.018269123696324142 1.4944816090819177 8.366443035767302 0.7853474783654427 2.5980907400665445 3.283781337401967 8.762025957130477" Properties=species:S:1:pos:R:3 unique_starting_index=30 config_type=initial n_minim_iter=4 stress="0.00014717271112462405 -0.00015570953739109657 -6.55910986339281e-05 -0.00015570953739109657 -0.0003985758734137489 -0.0004177737368879252 -6.55910986339281e-05 -0.0004177737368879252 9.976366684566568e-05" pbc="T T T"
Si       8.51893307       5.66788005       5.69189349
Si       5.20003658       5.41076450       3.83721082
Si       3.47113286       5.04297904       2.72025839
Si      10.24783679       6.03566552       6.80884592
Si       8.60767074       5.05374753       7.71704528
Si       5.11129891       6.02489703       1.81205904
Si       5.94148572       4.86851737       0.24045642
Si       7.77748393       6.21012719       9.28864789
Si       3.50851693       6.66711842       4.07449289
Si      10.21045272       4.41152614       5.45461142
Si      11.41028751       4.91862802       3.78534516
Si       2.30868213       6.16001654       5.74375915
Si       3.46112651       4.68305504       4.81111475
Si      10.25784313       6.39558952       4.71798956
Si       5.79827936       8.02385629       1.70352740
Si       7.92069029       3.05478826       7.82557691
16
Lattice="9.626188132607089 -0.5714516339842036 -0.01835077503566443 1.494642800296706 8.367899929524363 0.786735569316826 2.598125408354021 3.2858285368355875 8.762262869908065" Properties=species:S:1:pos:R:3 unique_starting_index=30 config_type=initial n_minim_iter=5 stress="-0.00013058176490087607 -0.0002140674263572496 9.398615608045376e-06 -0.0002140674263572496 0.00043031541554938897 0.00012158655727540377 9.398615608045376e-06 0.00012158655727540377 0.00010570916183933362" pbc="T T T"
Si       8.51899800       5.66988466       5.69266032
Si       5.19995834       5.41239218       3.83798735
Si       3.47132647       5.04420594       2.72085490
Si      10.24762988       6.03807089       6.80979277
Si       8.60761555       5.05594324       7.71762909
Si       5.11134079       6.02633360       1.81301858
Si       5.94148493       4.86948436       0.24137192
Si       7.77747142       6.21279247       9.28927575
Si       3.50860529       6.66901152       4.07536685
Si      10.21035105       4.41326531       5.45528081
Si      11.41009263       4.92029657       3.78600083
Si       2.30886371       6.16198027       5.74464683
Si       3.46103161       4.68469213       4.81181799
Si      10.25792473       6.39758470       4.71882968
Si       5.79834802       8.02553234       1.70477876
Si       7.92060832       3.05674449       7.82586890
16
Lattice="9.627130894337142 -0.5706355010696411 -0.01838052127906201 1.4954934576266548 8.36781020039014 0.7880373807628049 2.598718429305086 3.2872904184442198 8.76252247320349" Properties=species:S:1:pos:R:3 unique_starting_index=30 config_type=initial n_minim_iter=6 stress="-0.00014060569503543532 3.5984588539155e-05 -0.00011266909883201054 3.5984588539155e-05 -0.00019188513977619697 0.00041008457861111135 -0.00011266909883201054 0.00041008457861111135 0.0004504911757348928" pbc="T T T"
Si       8.52058081       5.67123203       5.69336604
Si       5.20076197       5.41323309       3.83881329
Si       3.47230767       5.04452801       2.72136275
Si      10.24903511       6.03993711       6.81081658
Si       8.60889112       5.05748421       7.71834583
Si       5.11245166       6.02698091       1.81383351
Si       5.94250558       4.86990066       0.24235333
Si       7.77883720       6.21456445       9.28982600
Si       3.50951404       6.66974599       4.07617782
Si      10.21182874       4.41471912       5.45600152
Si      11.41152312       4.92168247       3.78672088
Si       2.30981966       6.16278265       5.74545845
Si       3.46161052       4.68565961       4.81253181
Si      10.25973226       6.39880551       4.71964753
Si       5.79954747       8.02598079       1.70606651
Si       7.92179531       3.05848433       7.82611283
16
Lattice="9.628632395623791 -0.5705328554952158 -0.017902765161583657 1.4959248674658467 8.368977801908136 0.7884164128212421 2.5996462849461075 3.2882104440524516 8.761493598899266" Properties=species:S:1:pos:R:3 unique_starting_index=30 config_type=initial n_minim_iter=7 stress="0.0004812246697989908 2.153707823268183e-05 0.0002989109509642248 2.153707823268183e-05 0.0010332811875583253 0.0005510555305206889 0.0002989109509642248 0.0005510555305206889 0.00020310465478211407" pbc="T T T"
Si       8.52255031       5.67242112       5.69313469
Si       5.20165324       5.41423427       3.83887255
Si       3.47330209       5.04518709       2.72115901
Si      10.25090146       6.04146830       6.81084824
Si       8.61067150       5.05851929       7.71802049
Si       5.11353204       6.02813610       1.81398675
Si       5.94354977       4.87075634       0.24308613
Si       7.78065378       6.21589905       9.28892112
Si       3.51033614       6.67098135       4.07591716
Si      10.21386741       4.41567404       5.45609009
Si      11.41340989       4.92281031       3.78703038
Si       2.31079366       6.16384508       5.74497687
Si       3.46230496       4.68669770       4.81233324
Si      10.26189859       6.39995769       4.71967401
Si       5.80061720       8.02729238       1.70657761
Si       7.92358635       3.05936301       7.82542964
16
Lattice="9.62800201844645 -0.5721336774963551 -0.019565862882092607 1.494377307879756 8.370297861661154 0.7881606279215015 2.597432708515836 3.2885571394014907 8.759562814446706" Properties=species:S:1:pos:R:3 unique_starting_index=30 config_type=initial n_minim_iter=8 stress="-0.0005528081140710393 -0.00024291403643618832 -0.00024779217106491645 -0.00024291403643618832 0.0010076508820286453 0.0006671068690628242 -0.00024779217106491645 0.0006671068690628242 0.0007141008510165157" pbc="T T T"
Si       8.52069204       5.67228102       5.69041968
Si       5.19911999       5.41444031       3.83773790
Si       3.47237864       5.04533873       2.71977175
Si      10.24743340       6.04138259       6.80838583
Si       8.60792943       5.05782173       7.71548908
Si       5.11188261       6.02889959       1.81266850
Si       5.94240803       4.87084790       0.24250331
Si       7.77740401       6.21587343       9.28565427
Si       3.50814190       6.67171748       4.07410312
Si      10.21167014       4.41500385       5.45405446
Si      11.41076253       4.92218151       3.78455225
Si       2.30904951       6.16453981       5.74360533
Si       3.46001158       4.68748424       4.81116238
Si      10.25980045       6.39923709       4.71699520
Si       5.79841437       8.02817800       1.70568302
Si       7.92139767       3.05854333       7.82247456
16
Lattice="9.633376028109486 -0.5730795824801745 -0.02011355024239889 1.49445903245088 8.372234736304287 0.7876055867616598 2.598088891207675 3.2891977166611355 8.75366898442543" Properties=species:S:1:pos:R:3 unique_starting_index=30 config_type=initial n_minim_iter=9 stress="0.0004156637388331324 -0.00010396112677724002 6.117281286221302e-05 -0.00010396112677724002 0.00024345737459463104 -0.00048813935554250636 6.117281286221302e-05 -0.00048813935554250636 -0.0009251540518757806" pbc="T T T"
Si       8.52587827       5.67303407       5.68556372
Si       5.20004568       5.41531880       3.83559730
Si       3.47478643       5.04593029       2.71732307
Si      10.25113752       6.04242258       6.80383795
Si       8.61192839       5.05752486       7.71022067
Si       5.11399556       6.03082801       1.81094035
Si       5.94558258       4.87165162       0.24271945
Si       7.78034138       6.21670126       9.27844157
Si       3.50882872       6.67264326       4.06981314
Si      10.21709524       4.41570961       5.45134788
Si      11.41553426       4.92267584       3.78110459
Si       2.31038969       6.16567703       5.74005644
Si       3.46024557       4.68924447       4.80821261
Si      10.26567838       6.39910840       4.71294841
Si       5.80058230       8.03046761       1.70454665
Si       7.92534165       3.05788526       7.81661437
16
Lattice="9.632771648552804 -0.5730765530490284 -0.018948209701403543 1.4945224696606378 8.3732483854595 0.7873641125390012 2.598987050956382 3.289180320901375 8.7538989677258" Properties=species:S:1:pos:R:3 unique_starting_index=30 config_type=initial n_minim_iter=10 stress="-0.00021911132311272982 0.00015052421841325756 0.0006207567055448291 0.00015052421841325756 0.00029516024380578046 -0.0007839408424700274 0.0006207567055448291 -0.0007839408424700274 -0.00018817811530712472" pbc="T T T"
Si       8.52634754       5.67352806       5.68607884
Si       5.19993363       5.41582409       3.83623603
Si       3.47501388       5.04628365       2.71739863
Si      10.25126729       6.04306851       6.80491624
Si       8.61233148       5.05742072       7.71118414
Si       5.11394969       6.03193144       1.81113073
Si       5.94540564       4.87223504       0.24332381
Si       7.78087553       6.21711711       9.27899106
Si       3.50890330       6.67318099       4.06957062
Si      10.21737786       4.41617116       5.45274425
Si      11.41520298       4.92318344       3.78213635
Si       2.31107819       6.16616872       5.74017852
Si       3.46027043       4.68982396       4.80859163
Si      10.26601074       6.39952820       4.71372324
Si       5.80044149       8.03159293       1.70480215
Si       7.92583968       3.05775922       7.81751272
16
Lattice="9.633813074249602 -0.5740705843290663 -0.019275549528576227 1.4938750533437941 8.374623143592816 0.7874439829760982 2.598668426398423 3.2898909925805966 8.751433959087034" Properties=species:S:1:pos:R:3 unique_starting_index=30 config_type=initial n_minim_iter=11 stress="0.0001555316386569898 -6.101023080852769e-05 1.306059158100524e-05 -6.101023080852769e-05 0.00013014855323583907 -0.0004816208794365328 1.306059158100524e-05 -0.0004816208794365328 -0.0007923832610416161" pbc="T T T"
Si       8.52689342       5.67399866       5.68401404
Si       5.19946313       5.41644489       3.83558835
Si       3.47485563       5.04663915       2.71656205
Si      10.25150092       6.04380440       6.80304034
Si       8.61246662       5.05704751       7.70904686
Si       5.11388994       6.03339604       1.81055553
Si       5.94580933       4.87239887       0.24350162
Si       7.78054722       6.21804468       9.27610078
Si       3.50798362       6.67402659       4.06797059
Si      10.21837293       4.41641696       5.45163180
Si      11.41573331       4.92314890       3.78078953
Si       2.31062325       6.16729465       5.73881287
Si       3.45930124       4.69092467       4.80758036
Si      10.26705531       6.39951888       4.71202203
Si       5.80013248       8.03280472       1.70441359
Si       7.92622408       3.05763883       7.81518880
16
Lattice="9.635634491204668 -0.5743466229499484 -0.01597256422701959 1.4943097541933978 8.376683269505321 0.7874488378280368 2.602104597161594 3.2905307997975934 8.748183661445418" Properties=species:S:1:pos:R:3 unique_starting_index=30 config_type=initial n_minim_iter=12 stress="-4.714790577552606e-05 0.0001623175453635641 7.30722198303925e-05 0.0001623175453635641 -0.00014002544347297403 -0.00030344378933966945 7.30722198303925e-05 -0.00030344378933966945 -0.00028823936833987344" pbc="T T T"
Si       8.53098947       5.67475641       5.68377028
Si       5.20105937       5.41811104       3.83588966
Si       3.47625673       5.04711658       2.71567127
Si      10.25579211       6.04575086       6.80398866
Si       8.61702101       5.05697769       7.70806480
Si       5.11502783       6.03588976       1.81159514
Si       5.94747188       4.87311273       0.24604646
Si       7.78457697       6.21975472       9.27361348
Si       3.50881114       6.67506354       4.06594050
Si      10.22323771       4.41780391       5.45371943
Si      11.41934286       4.92419225       3.78227897
Si       2.31270599       6.16867519       5.73738096
Si       3.45992108       4.69257091       4.80757579
Si      10.27212776       6.40029653       4.71208414
Si       5.80097994       8.03534124       1.70621062
Si       7.93106890       3.05752620       7.81344932
16
Lattice="9.638434249965023 -0.5758939775300292 -0.015254362765012823 1.4935326336153512 8.3779015789612 0.7885967979827231 2.6030710200469254 3.292047745046075 8.745515109812604" Properties=species:S:1:pos:R:3 unique_starting_index=30 config_type=initial n_minim_iter=13 stress="-0.00019501211204331142 0.0002671831002926823 -0.00016891376863643854 0.0002671831002926823 -0.0004925749122836106 0.0002647545537105735 -0.00016891376863643854 0.0002647545537105735 0.000258469957515604" pbc="T T T"
Si       8.53383760       5.67485446       5.68261996
Si       5.20120031       5.41920088       3.83623758
Si       3.47645531       5.04704803       2.71520742
Si      10.25858260       6.04700731       6.80365012
Si       8.61968616       5.05716896       7.70653743
Si       5.11535174       6.03688639       1.81232012
Si       5.94875321       4.87273908       0.24789070
Si       7.78628469       6.22131626       9.27096685
Si       3.50878169       6.67586487       4.06482278
Si      10.22625621       4.41819048       5.45403477
Si      11.42269978       4.92403006       3.78190684
Si       2.31233812       6.17002529       5.73695070
Si       3.46006582       4.69407453       4.80726743
Si      10.27497208       6.39998082       4.71159012
Si       5.80120876       8.03648339       1.70750427
Si       7.93382915       3.05757196       7.81135328
16
Lattice="9.642537212564909 -0.5782987625596901 -0.016145034133290086 1.4920231720491757 8.378188013289618 0.7881836808449044 2.6025172579311606 3.291637750718764 8.742533364577486" Properties=species:S:1:pos:R:3 unique_starting_index=30 config_type=initial n_minim_iter=14 stress="-8.86391971888142e-05 0.0001830456464495748 -0.00013363075101446525 0.0001830456464495748 -0.00040865284894811305 0.000430439889752791 -0.00013363075101446525 0.000430439889752791 0.0006077599711247708" pbc="T T T"
Si       8.53613954       5.67246556       5.67915091
Si       5.20093810       5.41906144       3.83542110
Si       3.47637490       5.04601285       2.71343959
Si      10.26070274       6.04551415       6.80113242
Si       8.62219733       5.05521254       7.70348121
Si       5.11488031       6.03631446       1.81109080
Si       5.95031575       4.87140234       0.24813382
Si       7.78676189       6.22012466       9.26643819
Si       3.50776206       6.67486687       4.06297047
Si      10.22931558       4.41666013       5.45160154
Si      11.42623021       4.92122281       3.77943732
Si       2.31084743       6.17030419       5.73513469
Si       3.45922814       4.69377674       4.80615713
Si      10.27784950       6.39775026       4.70841489
Si       5.80128707       8.03606182       1.70620636
Si       7.93579057       3.05546518       7.80836565
16
Lattice="9.658233040328911 -0.5938737454566904 -0.02376396664709155 1.4807309152152606 8.385637312297375 0.7822278036540817 2.594284828705433 3.288797432927157 8.715823823734057" Properties=species:S:1:pos:R:3 unique_starting_index=30 config_type=initial n_minim_iter=15 stress="-5.514304647186574e-05 -0.0006417521672064277 0.00012416056457794432 -0.0006417521672064277 0.001509001336795731 0.0006606068194842266 0.00012416056457794432 0.0006606068194842266 0.0010061489575881486" pbc="T T T"
Si       8.54060616       5.66009770       5.65033842
Si       5.19264262       5.42046330       3.82394924
Si       3.47099488       5.04263430       2.70021487
Si      10.26225390       6.03792670       6.77407279
Si       8.62585841       5.04336626       7.67484748
Si       5.10739037       6.03719474       1.79944018
Si       5.95361794       4.86669547       0.24616377
Si       7.77963084       6.21386553       9.22812389
Si       3.49719761       6.67375419       4.04588102
Si      10.23605118       4.40680681       5.42840664
Si      11.43439580       4.90471835       3.75564041
Si       2.29885299       6.17584265       5.71864725
Si       3.45050509       4.69241140       4.79230766
Si      10.28274369       6.38814960       4.68198000
Si       5.79419956       8.03671231       1.69462932
Si       7.93904922       3.04384869       7.77965834
16
Lattice="9.662305505236088 -0.5939512723028518 -0.02568271131211596 1.4809641697814144 8.38281254437745 0.7778994797653316 2.5933213889046964 3.2841695068475345 8.707632629467456" Properties=species:S:1:pos:R:3 unique_starting_index=30 config_type=initial n_minim_iter=16 stress="0.00022438540449856213 -0.0004824825610036878 0.000195226228297246 -0.0004824825610036878 0.0009190756740889565 0.00013831354349299016 0.000195226228297246 0.00013831354349299016 0.0004164314554612439" pbc="T T T"
Si       8.54382176       5.65589099       5.64052812
Si       5.19276930       5.41713979       3.81932128
Si       3.47102051       5.03912660       2.69472612
Si      10.26557055       6.03390418       6.76512327
Si       8.62904351       5.03844596       7.66493725
Si       5.10754755       6.03458481       1.79491215
Si       5.95687053       4.86499181       0.24375217
Si       7.77972054       6.20803897       9.21609723
Si       3.49652859       6.67085823       4.03937800
Si      10.24006247       4.40217254       5.42047140
Si      11.43840135       4.90048031       3.74753879
Si       2.29818971       6.17255046       5.71231061
Si       3.45026640       4.69070624       4.78740938
Si      10.28632467       6.38232454       4.67244002
Si       5.79559344       8.03375286       1.68881499
Si       7.94099763       3.03927792       7.77103441
16
Lattice="9.66752916945518 -0.5935888491983239 -0.02778951398647981 1.4817718609872075 8.380479784210953 0.7732127842708588 2.5926481863831325 3.2795837692046033 8.698399480632423" Properties=species:S:1:pos:R:3 unique_starting_index=30 config_type=initial n_minim_iter=17 stress="0.00012612960903368478 -2.1851569529663073e-05 1.9612008810606546e-05 -2.1851569529663073e-05 0.0002135484036307081 -0.00021852310521167055 1.9612008810606546e-05 -0.00021852310521167055 -0.00027886530391370556" pbc="T T T"
Si       8.54883744       5.65168555       5.62960557
Si       5.19311177       5.41478915       3.81421718
Si       3.47149920       5.03580794       2.68877092
Si      10.27045002       6.03066677       6.75505183
Si       8.63369860       5.03342120       7.65344786
Si       5.10825062       6.03305351       1.79037489
Si       5.96149540       4.86351004       0.24072369
Si       7.78045382       6.20296466       9.20309906
Si       3.49691476       6.66826564       4.03223990
Si      10.24503445       4.39820906       5.41158285
Si      11.44354145       4.89722331       3.73915269
Si       2.29840777       6.16925139       5.70467006
Si       3.45074680       4.68912575       4.78240033
Si      10.29120242       6.37734895       4.66142242
Si       5.79799829       8.03136998       1.68239178
Si       7.94395093       3.03510472       7.76143097
16
Lattice="9.699921312376071 -0.6107587248696992 -0.046606607480078596 1.4698797927597298 8.37322000642235 0.7554794728260503 2.5772948856709528 3.2627581824902774 8.639353988159703" Properties=species:S:1:pos:R:3 unique_starting_index=30 config_type=initial n_minim_iter=18 stress="0.0006946506151407286 0.0002687956169949575 -0.0005042894845419179 0.0002687956169949575 -0.0012654290222895476 0.0001722782788051033 -0.0005042894845419179 0.0001722782788051033 0.0001731366553121696" pbc="T T T"
Si       8.56367377       5.62004110       5.56079787
Si       5.18342222       5.40517837       3.78742898
Si       3.46466871       5.01768879       2.65877436
Si      10.28242728       6.00753067       6.68945250
Si       8.64932900       5.00317048       7.58573571
Si       5.09776700       6.02204898       1.76249114
Si       5.97840514       4.84952447       0.23008099
Si       7.76869085       6.17569499       9.11814586
Si       3.48401378       6.65645232       3.99320539
Si      10.26308221       4.36876714       5.35502146
Si      11.46412052       4.86337562       3.68277187
Si       2.28297547       6.16184385       5.66545498
Si       3.43787071       4.68156413       4.75253340
Si      10.30922528       6.34365533       4.59569345
Si       5.79496362       8.01736240       1.65132152
Si       7.95213237       3.00785706       7.69690534
16
Lattice="9.708717083404146 -0.6284082431072092 -0.061068044649571274 1.4545985885980233 8.371387034846247 0.7468417611738704 2.5599108428517425 3.254038384077423 8.610771321219978" Properties=species:S:1:pos:R:3 unique_starting_index=30 config_type=initial n_minim_iter=19 stress="2.3568998205902873e-05 5.4772456223534845e-05 -0.0006190143976488584 5.4772456223534845e-05 -0.0008019109143139869 5.9731098878417404e-05 -0.0006190143976488584 5.9731098878417404e-05 0.00018932933413298784" pbc="T T T"
Si       8.55647570       5.59800212       5.52483126
Si       5.16675081       5.39901506       3.77171378
Si       3.45095472       5.00821204       2.64331417
Si      10.27227179       5.98880513       6.65323087
Si       8.63965750       4.98328745       7.54994967
Si       5.08356901       6.01372973       1.74659537
Si       5.97664349       4.83972066       0.22277976
Si       7.74658302       6.15729652       9.07376528
Si       3.46634796       6.64946636       3.97383150
Si      10.25687856       4.34755082       5.32271354
Si      11.45900810       4.83738939       3.65015309
Si       2.26421842       6.15962779       5.64639195
Si       3.42262326       4.67627479       4.73888194
Si      10.30060326       6.32074239       4.55766310
Si       5.78102176       8.00892447       1.63383218
Si       7.94220475       2.98809271       7.66271286
16
Lattice="9.715061765476506 -0.6370743390199075 -0.0631946699692335 1.4478669665682455 8.371236768678209 0.7459990321273732 2.5566213580338157 3.25250946719595 8.60102514698813" Properties=species:S:1:pos:R:3 unique_starting_index=30 config_type=initial n_minim_iter=20 stress="-0.0005282634450166329 0.00012897034925907067 -0.00010068106086494654 0.00012897034925907067 -0.0003306256546197302 -0.0002108919687474779 -0.00010068106086494654 -0.0002108919687474779 -0.0003298739134812444" pbc="T T T"
Si       8.55674592       5.58835917       5.51449886
Si       5.16280417       5.39831272       3.76933065
Si       3.44666588       5.00557974       2.64051469
Si      10.27288421       5.98109216       6.64331481
Si       8.64040148       4.97624308       7.54057367
Si       5.07914861       6.01042881       1.74325584
Si       5.97685176       4.83573998       0.22304175
Si       7.74269833       6.15093192       9.06078776
Si       3.46222272       6.64862071       3.96882120
Si      10.25732737       4.33805118       5.31500831
Si      11.46121978       4.82614874       3.64322303
Si       2.25833031       6.16052316       5.64060648
Si       3.41830680       4.67572472       4.73625902
Si      10.30124329       6.31094718       4.54757049
Si       5.77675062       8.00568030       1.63146803
Si       7.94279947       2.98099160       7.65236148
16
Lattice="9.746061430053341 -0.6724201588955311 -0.07900738435465851 1.4208581894730326 8.374941666255205 0.7309638023245927 2.5375972580244914 3.238505504105677 8.544854071815099" Properties=species:S:1:pos:R:3 unique_starting_index=30 config_type=initial n_minim_iter=21 stress="4.8974730072286096e-05 -0.0003168538428084725 8.345036233385978e-05 -0.0003168538428084725 0.0011549762100831237 0.0005110379196261134 8.345036233385978e-05 0.0005110379196261134 0.00047170874974670785" pbc="T T T"
Si       8.56068124       5.54587002       5.45099041
Si       5.14383563       5.39515699       3.74582008
Si       3.43177954       4.99209304       2.61494597
Si      10.27273733       5.94893397       6.58186452
Si       8.64282364       4.94062217       7.47930997
Si       5.06169324       6.00040484       1.71750052
Si       5.98203056       4.82035920       0.21400022
Si       7.72248632       6.12066781       8.98281027
Si       3.44075881       6.64370270       3.93324448
Si      10.26375807       4.29732431       5.26356601
Si      11.47209872       4.77905740       3.59331245
Si       2.23241815       6.16196961       5.60349804
Si       3.39775710       4.67478117       4.71234159
Si      10.30675978       6.26624584       4.48446890
Si       5.76076959       7.99540524       1.60601823
Si       7.94374729       2.94562178       7.59079226
