12
Lattice="7.202671808941378 -0.035827229306168384 -0.28138190355149795 -1.65901551652262 6.919847636445039 1.253024841759948 -1.042653070805213 0.6136317828863104 6.95824845997216" Properties=species:S:1:pos:R:3 unique_starting_index=44 config_type=initial n_minim_iter=4 energy=-1965.1667131854185 free_energy=-1965.1667131854185 pbc="T T T"
Si      -1.17718598       3.74273245       5.73386969
Si       0.05366563       4.21237821       4.05864503
Si      -0.80405640       5.76558128       5.22897693
Si       1.98231436       3.34227779       4.32691231
Si       6.33343115       5.18486847       6.97381321
Si       3.98264937       3.21388983       5.05529013
Si       5.61868620       3.45069786      -0.03936016
Si      -0.80555335       4.10561397       2.11809792
Si       0.25266661       2.33125729       5.02302686
Si       5.45991976       3.11805680       3.51586471
Si       0.92815241       0.36477298       5.45674826
Si       2.63242681       1.58223752       5.31009724
