12
Lattice="4.020484726461659 -2.3782996694324033e-16 -4.1193358630812003e-16 5.831320542048628e-16 9.857771699562106 -6.728159811173416e-15 5.831320542048667e-16 -4.9288858497810475 8.537080716528088" Properties=species:S:1:pos:R:3 unique_starting_index=66 config_type=initial n_minim_iter=1 energy=-1943.3154157838842 free_energy=-1943.3154157838842 pbc="T T T"
Si       1.93714563      -2.04816632       8.11738133
Si       1.93714563       3.12505576       6.25215412
Si       1.93714563      -1.07688943       2.70462598
Si       2.08333910       6.97705218       0.41969938
Si       2.08333910       1.80383010       2.28492660
Si       2.08333910       6.00577529       5.83245473
Si       0.97044832      -0.19323492       4.39945339
Si       0.97044832      -1.02222998       6.50470038
Si       0.97044832       1.21546492       6.17000766
Si       3.05003641       5.12212079       4.13762732
Si       3.05003641       5.95111584       2.03238034
Si       3.05003641       3.71342094       2.36707305
12
Lattice="4.172840127379328 -3.086306621310579e-16 -5.345639875846188e-16 4.0298296791119296e-16 9.379195871256544 -6.586710077877051e-15 4.029829679111962e-16 -4.689597935628266 8.122621891578287" Properties=species:S:1:pos:R:3 unique_starting_index=66 config_type=initial n_minim_iter=2 stress="0.0022614970220249018 5.098817840147058e-17 6.663386602055197e-16 5.098817840147058e-17 -0.004659351601578679 -3.020874953237812e-16 6.663386602055197e-16 -3.020874953237812e-16 -0.004659351601578412" pbc="T T T"
Si       2.04337601      -1.95450098       7.75438465
Si       2.04337601       3.00314666       5.93807707
Si       2.04337601      -1.04864566       2.55278206
Si       2.12946412       6.64409893       0.36823724
Si       2.12946412       1.68645128       2.18454482
Si       2.12946412       5.73824361       5.56983983
Si       1.00611522      -0.16860803       4.18982852
Si       1.00611522      -0.97679597       6.17372647
Si       1.00611522       1.14540402       5.88168879
Si       3.16672491       4.85820598       3.93279337
Si       3.16672491       5.66639392       1.94889542
Si       3.16672491       3.54419392       2.24093310
12
Lattice="4.448037691619151 -4.0865666622961655e-16 -7.078141087614127e-16 1.2969305757150113e-16 8.720082671454076 -1.968605625306527e-15 1.2969305757150108e-16 -4.360041335727034 7.551813116579698" Properties=species:S:1:pos:R:3 unique_starting_index=66 config_type=initial n_minim_iter=3 stress="0.01153496133757169 9.248254258468345e-17 -5.45798611975181e-17 9.248254258468345e-17 -0.00931916593560887 2.0865426103634525e-16 -5.45798611975181e-17 2.0865426103634525e-16 -0.009319165935609566" pbc="T T T"
Si       2.26307551      -1.84773472       7.28508558
Si       2.26307551       2.87289521       5.50945554
Si       2.26307551      -1.02516048       2.30908512
Si       2.18496218       6.20777606       0.26672754
Si       2.18496218       1.48714614       2.04235758
Si       2.18496218       5.38520182       5.24272800
Si       1.07740049      -0.12585493       3.86037799
Si       1.07740049      -0.95392845       5.73061769
Si       1.07740049       1.07978340       5.51263055
Si       3.37063721       4.48589627       3.69143512
Si       3.37063721       5.31396980       1.82119543
Si       3.37063721       3.28025795       2.03918257
12
Lattice="4.698666984164978 -4.318854237706493e-16 -7.480474970191812e-16 7.853192861387336e-18 8.115322023730558 -3.0566752585007397e-15 7.853192861389319e-18 -4.057661011865283 7.028075032442016" Properties=species:S:1:pos:R:3 unique_starting_index=66 config_type=initial n_minim_iter=4 stress="-0.009293205112901201 -9.486999972250526e-17 -9.114148444956836e-18 -9.486999972250526e-17 -0.061728388612015093 2.185324229415787e-17 -9.114148444956836e-18 2.185324229415787e-17 -0.061728388612014504" pbc="T T T"
Si       2.47907832      -1.74940571       6.85044984
Si       2.47907832       2.74970544       5.11787991
Si       2.47907832      -1.00029971       2.08782032
Si       2.21958866       5.80706674       0.17762519
Si       2.21958866       1.30795558       1.91019512
Si       2.21958866       5.05796073       4.94025471
Si       1.14833680      -0.09116613       3.53895770
Si       1.14833680      -0.94725066       5.33754837
Si       1.14833680       1.03841681       5.17964399
Si       3.55033018       4.14882715       3.48911733
Si       3.55033018       5.00491169       1.69052666
Si       3.55033018       3.01924421       1.84843104
12
Lattice="5.292994173735157 -4.1559582169630047e-16 -7.198330785924506e-16 2.407855941820033e-22 7.747192032509797 4.661407225748173e-15 2.4078322247781685e-22 -3.8735960162549063 6.709265108149881" Properties=species:S:1:pos:R:3 unique_starting_index=66 config_type=initial n_minim_iter=5 stress="-0.031654794491541335 2.5689530915032225e-15 -8.660935200772077e-15 2.5689530915032225e-15 -0.09747239942447568 -7.430230725306799e-15 -8.660935200772077e-15 -7.430230725306799e-15 -0.09747239942447841" pbc="T T T"
Si       2.95152787      -1.71766372       6.65131130
Si       2.95152787       2.74544040       4.87114988
Si       2.95152787      -1.02777667       1.89606904
Si       2.34146630       5.59125974       0.05795381
Si       2.34146630       1.12815562       1.83811523
Si       2.34146630       4.90137270       4.81319607
Si       1.32027142      -0.04610818       3.28088910
Si       1.32027142      -1.00920861       5.10875142
Si       1.32027142       1.05531680       5.02888970
Si       3.97272275       3.91970420       3.42837601
Si       3.97272275       4.88280464       1.60051369
Si       3.97272275       2.81827922       1.68037541
12
Lattice="5.4077418788299845 -4.252291914617376e-16 -7.365185644701678e-16 3.4421956049410614e-23 7.92676770160615 6.875924417891135e-15 3.4428337599168714e-23 -3.963383850803083 6.864782199488909" Properties=species:S:1:pos:R:3 unique_starting_index=66 config_type=initial n_minim_iter=6 stress="0.01812918867130973 6.783613088702644e-16 -7.60270229980239e-15 6.783613088702644e-16 0.037515407761360135 -5.867561221106981e-15 -7.60270229980239e-15 -5.867561221106981e-15 0.037515407761355396" pbc="T T T"
Si       3.04359186      -1.77369897       6.82761400
Si       3.04359186       2.83635281       4.98704357
Si       3.04359186      -1.06265383       1.91490683
Si       2.36415002       5.73708283       0.03716820
Si       2.36415002       1.12703105       1.87773863
Si       2.36415002       5.02603769       4.94987537
Si       1.34992573      -0.04163931       3.33426522
Si       1.34992573      -1.05500580       5.23371030
Si       1.34992573       1.09664513       5.16158888
Si       4.05781615       4.00502317       3.53051698
Si       4.05781615       5.01838967       1.63107190
Si       4.05781615       2.86673873       1.70319332
12
Lattice="5.374284228157408 -4.2579807648951517e-16 -7.375039022579103e-16 1.4549997336953268e-24 7.937372141498911 3.4434846486395672e-15 1.4276317186299616e-24 -3.968686070749463 6.873965913828946" Properties=species:S:1:pos:R:3 unique_starting_index=66 config_type=initial n_minim_iter=7 stress="0.027644827629619607 1.3944636593355684e-15 -5.0906631864462534e-15 1.3944636593355684e-15 0.06074191418740878 -4.01036086877066e-15 -5.0906631864462534e-15 -4.01036086877066e-15 0.06074191418740705" pbc="T T T"
Si       3.01499209      -1.77544819       6.83208831
Si       3.01499209       2.83580007       4.99550500
Si       3.01499209      -1.06035186       1.92033852
Si       2.35929213       5.74413427       0.04187760
Si       2.35929213       1.13288601       1.87846091
Si       2.35929213       5.02903794       4.95362740
Si       1.34257468      -0.04365522       3.34193919
Si       1.34257468      -1.05265422       5.24080285
Si       1.34257468       1.09630945       5.16518979
Si       4.03170955       4.01234130       3.53202673
Si       4.03170955       5.02134030       1.63316306
Si       4.03170955       2.87237663       1.70877612
12
Lattice="5.179493264289549 -4.1843870226943034e-16 -7.2475709205451575e-16 -9.800345593130595e-26 7.8001848219982275 -1.37562483683407e-14 1.7880305025288557e-25 -3.9000924109991053 6.7551582100642715" Properties=species:S:1:pos:R:3 unique_starting_index=66 config_type=initial n_minim_iter=8 stress="-0.07304120287727826 1.1642658752978788e-15 -1.061245621684957e-14 1.1642658752978788e-15 -0.07900542711188908 -8.155677117192034e-15 -1.061245621684957e-14 -8.155677117192034e-15 -0.07900542711189391" pbc="T T T"
Si       2.81734845      -1.77734032       6.71397325
Si       2.81734845       2.80304915       4.93739346
Si       2.81734845      -1.02570881       1.85894971
Si       2.36214482       5.67743274       0.04118496
Si       2.36214482       1.09704327       1.81776475
Si       2.36214482       4.92580124       4.89620850
Si       1.35053194      -0.04603984       3.28663171
Si       1.35053194      -1.03076592       5.15171403
Si       1.35053194       1.07680578       5.07197067
Si       3.82896133       3.94613226       3.46852649
Si       3.82896133       4.93085834       1.60344418
Si       3.82896133       2.82328664       1.68318753
12
Lattice="5.254848721237887 -4.140635709575748e-16 -7.17179143250567e-16 8.314809749188719e-25 7.718627285153145 -1.814668600855198e-14 -8.240343041206865e-25 -3.8593136425765584 6.684527311286349" Properties=species:S:1:pos:R:3 unique_starting_index=66 config_type=initial n_minim_iter=9 stress="-0.07799589049554835 5.556727340355586e-16 -9.293135093339529e-15 5.556727340355586e-16 -0.16868117089943524 -6.1251965172346316e-15 -9.293135093339529e-15 -6.1251965172346316e-15 -0.16868117089944076" pbc="T T T"
Si       2.81812551      -1.77857000       6.64661034
Si       2.81812551       2.78610477       4.90150895
Si       2.81812551      -1.00753475       1.82093533
Si       2.43672321       5.63788365       0.03791697
Si       2.43672321       1.07320889       1.78301836
Si       2.43672321       4.86684840       4.86359198
Si       1.39612722      -0.04687526       3.24952157
Si       1.39612722      -1.02170777       5.10036170
Si       1.39612722       1.06858305       5.01917135
Si       3.85872150       3.90618891       3.43500574
Si       3.85872150       4.88102143       1.58416561
Si       3.85872150       2.79073060       1.66535596
12
Lattice="5.29356637271356 -4.2583024971450124e-16 -7.375596225282159e-16 -5.7986094040430744e-24 7.937971833636737 -2.362274608642393e-14 5.798873631005647e-24 -3.9689859168183492 6.87448526245476" Properties=species:S:1:pos:R:3 unique_starting_index=66 config_type=initial n_minim_iter=10 stress="-0.02097268971454535 -2.970251957381714e-15 -5.6033683551133424e-15 -2.970251957381714e-15 0.056639331116468496 -3.555885369869714e-15 -5.6033683551133424e-15 -3.555885369869714e-15 0.0566393311164516" pbc="T T T"
Si       2.78108402      -1.86342945       6.85796182
Si       2.78108402       2.90189797       5.05928160
Si       2.78108402      -1.03846851       1.83172710
Si       2.51248235       5.83241538       0.01652344
Si       2.51248235       1.06708795       1.81520367
Si       2.51248235       5.00745444       5.04275816
Si       1.50196005      -0.04678387       3.33001392
Si       1.50196005      -1.06171732       5.24999432
Si       1.50196005       1.10850120       5.16896228
Si       3.79160632       4.01576979       3.54447134
Si       3.79160632       5.03070325       1.62449094
Si       3.79160632       2.86048472       1.70552298
12
Lattice="6.188763486564282 -4.2370917933165134e-16 -7.338859528978279e-16 1.2406139113238813e-22 7.89843367680199 -3.9442390612970217e-14 -1.2406139097114738e-22 -3.949216838400955 6.840244214217072" Properties=species:S:1:pos:R:3 unique_starting_index=66 config_type=initial n_minim_iter=11 stress="0.015082841478319921 -4.768131242385332e-16 -2.8613768092796373e-16 -4.768131242385332e-16 -0.05267719654554789 5.0096922088780425e-15 -2.8613768092796373e-16 5.0096922088780425e-15 -0.052677196545548303" pbc="T T T"
Si       3.09038604      -1.87611599       6.82582874
Si       3.09038604       2.90018225       5.05209395
Si       3.09038604      -1.02406625       1.80256573
Si       3.09837745       5.82533284       0.01441547
Si       3.09837745       1.04903460       1.78815026
Si       3.09837745       4.97328310       5.03767848
Si       2.05988730      -0.05986208       3.33520984
Si       2.05988730      -1.03090934       5.22448138
Si       2.05988730       1.09077144       5.12079720
Si       4.12887619       4.00907893       3.50503437
Si       4.12887619       4.98012619       1.61576283
Si       4.12887619       2.85844541       1.71944701
12
Lattice="6.20426440138632 -4.326727263577192e-16 -7.49411006648724e-16 -1.6417347287670045e-22 8.065522494463512 -4.861365687197386e-14 1.6417347289908546e-22 -4.032761247231713 6.984947375000263" Properties=species:S:1:pos:R:3 unique_starting_index=66 config_type=initial n_minim_iter=12 stress="0.01582429178237046 -7.208658869698275e-16 -1.2903007047116904e-15 -7.208658869698275e-16 0.06491729148084 -1.0801077103506932e-15 -1.2903007047116904e-15 -1.0801077103506932e-15 0.06491729148083882" pbc="T T T"
Si       3.07412077      -1.94991336       6.99421105
Si       3.07412077       2.99935989       5.17651636
Si       3.07412077      -1.04944651       1.79916734
Si       3.13014363       5.98267461      -0.00926367
Si       3.13014363       1.03340137       1.80843102
Si       3.13014363       5.08220777       5.18578003
Si       2.18666456      -0.05442684       3.41479394
Si       2.18666456      -1.04824952       5.32468543
Si       2.18666456       1.10267637       5.23041537
Si       4.01759984       4.08718810       3.57015343
Si       4.01759984       5.08101077       1.66026194
Si       4.01759984       2.93008489       1.75453200
12
Lattice="6.4752754689739795 -4.3637554369498885e-16 -7.558247318848514e-16 9.606319090062931e-23 8.134549401121982 -4.920251083531579e-14 -9.606319088364246e-23 -4.0672747005609455 7.044726429711156" Properties=species:S:1:pos:R:3 unique_starting_index=66 config_type=initial n_minim_iter=13 stress="0.01703389343604138 -3.4473997148198802e-15 -2.1512448531231963e-15 -3.4473997148198802e-15 0.07947062016974889 -1.765848954576314e-15 -2.1512448531231963e-15 -1.765848954576314e-15 0.0794706201697561" pbc="T T T"
Si       3.21287449      -1.98585173       7.07480381
Si       3.21287449       3.05261100       5.22712257
Si       3.21287449      -1.06675926       1.78752647
Si       3.26240098       6.05312644      -0.03007739
Si       3.26240098       1.01466371       1.81760386
Si       3.26240098       5.13403397       5.25719995
Si       2.40395714      -0.04580352       3.46357659
Si       2.40395714      -1.04482762       5.35260515
Si       2.40395714       1.09063115       5.27327112
Si       4.07131833       4.11307823       3.58114984
Si       4.07131833       5.11210233       1.69212128
Si       4.07131833       2.97664356       1.77145531
12
Lattice="6.847747235166964 -4.3884544813442433e-16 -7.601026145006917e-16 -2.0174106448713368e-23 8.180590349567746 -5.824167475086877e-14 2.017410643356674e-23 -4.090295174783822 7.084599060679519" Properties=species:S:1:pos:R:3 unique_starting_index=66 config_type=initial n_minim_iter=14 stress="0.004540505666143138 -3.7844275318646354e-16 -5.263615048846903e-15 -3.7844275318646354e-16 0.025945893567965887 -6.230991306229848e-15 -5.263615048846903e-15 -6.230991306229848e-15 0.02594589356796506" pbc="T T T"
Si       3.35704873      -2.01647240       7.12781629
Si       3.35704873       3.09081101       5.26700724
Si       3.35704873      -1.07433860       1.77437459
Si       3.49069851       6.10676758      -0.04321723
Si       3.49069851       0.99948418       1.81759182
Si       3.49069851       5.16463378       5.31022447
Si       2.74178481      -0.04039533       3.50396202
Si       2.74178481      -1.03557738       5.36760143
Si       2.74178481       1.07597272       5.29763466
Si       4.10596243       4.13069051       3.58063704
Si       4.10596243       5.12587256       1.71699763
Si       4.10596243       3.01432246       1.78696440
12
Lattice="8.078590141956923 -4.4264538598589573e-16 -7.66684321003512e-16 4.022254206950075e-27 8.251425787565651 -8.751601519167983e-14 -4.0222971292523824e-27 -4.1257128937827545 7.145944349473917" Properties=species:S:1:pos:R:3 unique_starting_index=66 config_type=initial n_minim_iter=15 stress="-0.0006228499110585123 5.800524958865504e-16 -6.007083080203306e-16 5.800524958865504e-16 0.02663327090626913 -1.3821039881897514e-15 -6.007083080203306e-16 -1.3821039881897514e-15 0.026633270906268415" pbc="T T T"
Si       3.79368413      -2.09030595       7.18596461
Si       3.79368413       3.14266799       5.36322011
Si       3.79368413      -1.05236202       1.74270399
Si       4.28490601       6.21601886      -0.04002026
Si       4.28490601       0.98304492       1.78272424
Si       4.28490601       5.17807493       5.40324036
Si       3.90601318      -0.00675383       3.57760460
Si       3.90601318      -1.02403950       5.36299104
Si       3.90601318       1.03079334       5.35129306
Si       4.17257697       4.13246673       3.56833975
Si       4.17257697       5.14975241       1.78295331
Si       4.17257697       3.09491956       1.79465129
12
Lattice="8.284852801732908 -4.4189269002230295e-16 -7.653806133082704e-16 -9.821589054196753e-28 8.237394657684693 -9.448461605729934e-14 9.821279204984698e-28 -4.1186973288422735 7.133793034553214" Properties=species:S:1:pos:R:3 unique_starting_index=66 config_type=initial n_minim_iter=16 stress="-0.0005716129298506435 1.4817036207618274e-15 -4.138964327330076e-16 1.4817036207618274e-15 0.027098671730743134 -2.0282065414475867e-15 -4.138964327330076e-16 -2.0282065414475867e-15 0.02709867173075151" pbc="T T T"
Si       3.86953388      -2.09102647       7.16841119
Si       3.86953388       3.13484211       5.36046949
Si       3.86953388      -1.04381562       1.73870539
Si       4.41531892       6.20972381      -0.03461816
Si       4.41531892       0.98385522       1.77332354
Si       4.41531892       5.16251296       5.39508765
Si       4.08662451      -0.00108039       3.57458556
Si       4.08662451      -1.02247522       5.34743590
Si       4.08662451       1.02355563       5.34556460
Si       4.19822829       4.11977773       3.55920747
Si       4.19822829       5.14117256       1.78635713
Si       4.19822829       3.09514171       1.78822843
12
Lattice="8.443100901865233 -4.397216192974425e-16 -7.616202083956308e-16 1.5133900155835925e-28 8.1969233695414 -9.954224585725497e-14 -1.5137331800722206e-28 -4.098461684770624 7.0987438708972475" Properties=species:S:1:pos:R:3 unique_starting_index=66 config_type=initial n_minim_iter=17 stress="-0.0011144245372789793 8.260669205721516e-16 -5.241676877985483e-16 8.260669205721516e-16 -0.016411666723926483 -2.0596095307592017e-15 -5.241676877985483e-16 -2.0596095307592017e-15 -0.016411666723924818" pbc="T T T"
Si       3.93683329      -2.07853663       7.12252171
Si       3.93683329       3.10909138       5.33754854
Si       3.93683329      -1.03055473       1.73741749
Si       4.50626761       6.17699833      -0.02377784
Si       4.50626761       0.98937032       1.76119533
Si       4.50626761       5.12901643       5.36132638
Si       4.20015049       0.00412510       3.55579188
Si       4.20015049      -1.02111813       5.31727550
Si       4.20015049       1.01699304       5.32442036
Si       4.24295041       4.09433660       3.54295199
Si       4.24295041       5.11957982       1.78146837
Si       4.24295041       3.08146865       1.77432351
12
Lattice="8.382970173116245 -4.399483379404554e-16 -7.620128966158143e-16 -4.4405570991220285e-29 8.2011496692297 -1.0370409624493299e-13 4.4375972708553385e-29 -4.1005748346147675 7.102403953791316" Properties=species:S:1:pos:R:3 unique_starting_index=66 config_type=initial n_minim_iter=18 stress="2.990545619239393e-05 5.9558302983608476e-15 -4.831033394965435e-16 5.9558302983608476e-15 -0.00221869351206348 -1.292822961937803e-15 -4.831033394965435e-16 -1.292822961937803e-15 -0.0022186935120813637" pbc="T T T"
Si       3.87538749      -2.07949344       7.11837389
Si       3.87538749       3.10386452       5.34411116
Si       3.87538749      -1.02437106       1.74232286
Si       4.50758268       6.18006829      -0.01596994
Si       4.50758268       0.99671033       1.75829279
Si       4.50758268       5.12494590       5.36008110
Si       4.17917580       0.00628262       3.55219542
Si       4.17917580      -1.02742466       5.32086534
Si       4.17917580       1.02114206       5.33174715
Si       4.20379437       4.09429223       3.55020854
Si       4.20379437       5.12799951       1.78153861
Si       4.20379437       3.07943278       1.77065681
12
Lattice="8.230593698037438 -4.401022992637116e-16 -7.62279565458053e-16 1.3062486307394429e-29 8.204019687699107 -1.0955651429179741e-13 -1.3046296426132303e-29 -4.102009843849464 7.104889462695159" Properties=species:S:1:pos:R:3 unique_starting_index=66 config_type=initial n_minim_iter=19 stress="0.002517742296064217 4.791920549513118e-15 -4.490644689906229e-16 4.791920549513118e-15 0.01659284742700408 -1.0105975450049216e-15 -4.490644689906229e-16 -1.0105975450049216e-15 0.01659284742699158" pbc="T T T"
Si       3.77842411      -2.08770257       7.11048003
Si       3.77842411       3.09969779       5.35765291
Si       3.77842411      -1.01199521       1.74164598
Si       4.45216959       6.18971242      -0.00559057
Si       4.45216959       1.00231207       1.74723655
Si       4.45216959       5.11400506       5.36324348
Si       4.08793363       0.00790823       3.54179554
Si       4.08793363      -1.03867904       5.32714297
Si       4.08793363       1.03077082       5.34084042
Si       4.14266007       4.09410162       3.56309392
Si       4.14266007       5.14068889       1.77774649
Si       4.14266007       3.07123903       1.76404904
12
Lattice="8.175201739928038 -4.401348336503082e-16 -7.623359166702881e-16 -1.719597443482954e-30 8.204626166575856 -1.1181325029886288e-13 1.725497195704122e-30 -4.102313083287837 7.105414688809286" Properties=species:S:1:pos:R:3 unique_starting_index=66 config_type=initial n_minim_iter=20 stress="-0.00040453604383567624 7.745012276795988e-15 -5.863071237313638e-16 7.745012276795988e-15 0.005331718866531292 -8.393204139276301e-16 -5.863071237313638e-16 -8.393204139276301e-16 0.005331718866511911" pbc="T T T"
Si       3.75562523      -2.09228092       7.10822507
Si       3.75562523       3.09973087       5.36327059
Si       3.75562523      -1.00744993       1.73933372
Si       4.41957651       6.19459401      -0.00281038
Si       4.41957651       1.00258223       1.74214410
Si       4.41957651       5.10976303       5.36608097
Si       4.05046562       0.00798144       3.53848662
Si       4.05046562      -1.04188449       5.32925925
Si       4.05046562       1.03390307       5.34308351
Si       4.12473612       4.09433165       3.56692807
Si       4.12473612       5.14419759       1.77615544
Si       4.12473612       3.06841003       1.76233118
12
Lattice="8.224600677011937 -4.3966752367398596e-16 -7.615265120244129e-16 5.114317440681463e-31 8.195914964084047 -1.151970872279261e-13 -5.384396943425779e-31 -4.09795748204193 7.097870566153868" Properties=species:S:1:pos:R:3 unique_starting_index=66 config_type=initial n_minim_iter=21 stress="7.860032022316586e-06 7.138550647572988e-15 -1.274500338077234e-16 7.138550647572988e-15 0.0007809075021241306 -1.878858304490007e-15 -1.274500338077234e-16 -1.878858304490007e-15 0.0007809075021061018" pbc="T T T"
Si       3.77240470      -2.09205533       7.09752321
Si       3.77240470       3.09470559       5.36088203
Si       3.77240470      -1.00265025       1.73733590
Si       4.45219598       6.19001282       0.00034736
Si       4.45219598       1.00325190       1.73698854
Si       4.45219598       5.10060774       5.36053467
Si       4.09356051       0.00931557       3.53385125
Si       4.09356051      -1.04221030       5.32287743
Si       4.09356051       1.03289475       5.33901245
Si       4.13104017       4.08864193       3.56401932
Si       4.13104017       5.14016780       1.77499314
Si       4.13104017       3.06506274       1.75885811
