14
Lattice="5.90348417882274 0.2269866706505998 6.425283371327624e-16 0.021699720730409225 2.6206758304595446 7.657219105656757e-14 1.4077768775711565e-14 -4.0989248833361636e-13 14.024175425590407" Properties=species:S:1:pos:R:3 unique_starting_index=0 config_type=initial n_minim_iter=1 energy=-2278.6267992851062 free_energy=-2278.6267992851062 pbc="T T T"
Si       2.02176251       0.64038395      11.18721410
Si       0.94082944       0.78344731       4.17512638
Si       3.90342139       2.20727856       2.83696133
Si       4.98435446       2.06421520       9.84904904
Si       4.55360403       0.97878500       4.82910845
Si       4.31247210       0.67203292      11.84119616
Si       1.37157987       1.86887750       9.19506697
Si       1.61271180       2.17562958       2.18297926
Si       2.39742739       0.87771763       6.04012988
Si       0.56516456       0.54611362      13.05221760
Si       3.52775651       1.96994487       7.98404554
Si       5.36001934       2.30154888       0.97195783
Si       2.95174209       0.11349334      -0.00000000
Si       0.01084986       1.31033792       7.01208771
14
Lattice="5.910389499610529 0.22555405193115197 5.167067600509121e-16 0.021226471767617258 2.61710395571967 7.64665383639492e-14 1.3926486411580644e-14 -4.1080611102078803e-13 14.055169354047962" Properties=species:S:1:pos:R:3 unique_starting_index=0 config_type=initial n_minim_iter=2 stress="0.0007941779105907944 -8.948617695915689e-05 -8.850030319997214e-17 -8.948617695915689e-05 0.0004258038814067137 -6.870586309031025e-17 -8.850030319997214e-17 -6.870586309031025e-17 1.8760332558289693e-05" pbc="T T T"
Si       2.02417011       0.63896677      11.21193837
Si       0.94163788       0.78236223       4.18435369
Si       3.90744586       2.20369124       2.84323098
Si       4.98997809       2.06029578       9.87081566
Si       4.55884825       0.97663400       4.83988512
Si       4.31734924       0.67024906      11.86746980
Si       1.37276773       1.86602401       9.21528423
Si       1.61426673       2.17240895       2.18769955
Si       2.40018221       0.87603000       6.05318335
Si       0.56562578       0.54529900      13.08076803
Si       3.53143376       1.96662800       8.00198600
Si       5.36599019       2.29735901       0.97440133
Si       2.95519475       0.11277703      -0.00000000
Si       0.01061324       1.30855198       7.02758468
14
Lattice="5.9051515273805215 0.22584008424359134 5.348288352770355e-16 0.02143226392257834 2.61455334208265 7.639195649985861e-14 1.394507441295061e-14 -4.110207334821506e-13 14.062541129499863" Properties=species:S:1:pos:R:3 unique_starting_index=0 config_type=initial n_minim_iter=3 stress="-0.00039446561050923663 -9.687827973853647e-05 -5.879166929058481e-16 -9.687827973853647e-05 -0.0008018080639744636 -5.1150990138627355e-18 -5.879166929058481e-16 -5.1150990138627355e-18 -5.836242864660337e-05" pbc="T T T"
Si       2.02261813       0.63825691      11.21793292
Si       0.94067377       0.78193980       4.18666235
Si       3.90396566       2.20213652       2.84460821
Si       4.98591002       2.05845362       9.87587878
Si       4.55502162       0.97620540       4.84266562
Si       4.31342180       0.66983140      11.87393618
Si       1.37156217       1.86418803       9.21987551
Si       1.61316199       2.17056202       2.18860495
Si       2.39824177       0.87534072       6.05583560
Si       0.56505012       0.54485600      13.08710616
Si       3.52834202       1.96505271       8.00670553
Si       5.36153367       2.29553743       0.97543497
Si       2.95257576       0.11292004      -0.00000000
Si       0.01071613       1.30727667       7.03127056
14
Lattice="5.902126713375445 0.228754473556587 6.454908335253318e-16 0.022653500758789864 2.6161502626055086 7.643798786865747e-14 1.4015549293116373e-14 -4.1149835659154297e-13 14.078969431443369" Properties=species:S:1:pos:R:3 unique_starting_index=0 config_type=initial n_minim_iter=4 stress="-0.0009100644352346462 2.0546184934423277e-05 -7.191192244182602e-16 2.0546184934423277e-05 0.0008468929996185149 -3.0141574809112765e-17 -7.191192244182602e-16 -3.0141574809112765e-17 0.0011652445248726325" pbc="T T T"
Si       2.02239935       0.63867359      11.23145234
Si       0.93999076       0.78377878       4.19196762
Si       3.90238087       2.20623114       2.84751709
Si       4.98478946       2.06112596       9.88700181
Si       4.55348285       0.97949566       4.84931485
Si       4.31103397       0.67171119      11.88879957
Si       1.37129736       1.86540908       9.22965458
Si       1.61374624       2.17319355       2.19016986
Si       2.39782244       0.87690595       6.06099453
Si       0.56456767       0.54554642      13.10047924
Si       3.52695777       1.96799879       8.01797490
Si       5.36021255       2.29935831       0.97849019
Si       2.95106336       0.11437724      -0.00000000
Si       0.01132675       1.30807513       7.03948472
14
Lattice="5.912262445226841 0.23400589632755334 7.543466876790865e-16 0.02514547596830158 2.612938105084061 7.634064267316672e-14 1.391754367544728e-14 -4.1106302163950575e-13 14.063909932187643" Properties=species:S:1:pos:R:3 unique_starting_index=0 config_type=initial n_minim_iter=5 stress="0.00013262521697731354 0.00039027870528453876 -4.04227614826514e-16 0.00039027870528453876 -8.288208959055632e-05 -7.872406283058256e-17 -4.04227614826514e-16 -7.872406283058256e-17 0.0001720551170657541" pbc="T T T"
Si       2.02747500       0.63751548      11.22022075
Si       0.94122896       0.78595652       4.18826579
Si       3.90993292       2.20942852       2.84368918
Si       4.99617896       2.06098748       9.87564414
Si       4.56290762       0.98406822       4.84646448
Si       4.31805878       0.67340968      11.87841944
Si       1.37450030       1.86287578       9.21744546
Si       1.61934914       2.17353433       2.18549049
Si       2.40381667       0.87791192       6.04990458
Si       0.56488729       0.54556008      13.08185954
Si       3.53359125       1.96903208       8.01400536
Si       5.37252063       2.30138392       0.98205039
Si       2.95613122       0.11700295      -0.00000000
Si       0.01257274       1.30646905       7.03195497
14
Lattice="5.914156920035904 0.21492389448207797 1.161644109841852e-16 0.016687034622989285 2.6127955557471827 7.634275491766016e-14 1.3709814113179387e-14 -4.1047237092066993e-13 14.043390189267878" Properties=species:S:1:pos:R:3 unique_starting_index=0 config_type=initial n_minim_iter=6 stress="-8.874236750442312e-05 -0.0002983108172724917 -5.094271283501766e-16 -0.0002983108172724917 -3.405543344837953e-05 2.6277331030418454e-16 -5.094271283501766e-16 2.6277331030418454e-16 -0.00025396200236618607" pbc="T T T"
Si       2.02812376       0.62831623      11.20315006
Si       0.93729821       0.78554350       4.18145497
Si       3.90272019       2.19940322       2.84024012
Si       4.99354574       2.04217595       9.86193522
Si       4.56281925       0.97190722       4.84134705
Si       4.31675965       0.65687640      11.86304215
Si       1.36802471       1.85581223       9.20204314
Si       1.61408430       2.17084305       2.18034804
Si       2.40394340       0.87040093       6.03793242
Si       0.56147857       0.54345880      13.05962751
Si       3.52690055       1.95731853       8.00545777
Si       5.36936538       2.28426065       0.98376268
Si       2.95707846       0.10746195      -0.00000000
Si       0.00834352       1.30639778       7.02169509
14
Lattice="5.918615730015651 0.21364121685897874 5.643710431522198e-17 0.016140985694925516 2.61261432877923 7.633772752361835e-14 1.3657552210723804e-14 -4.102015925720585e-13 14.034089445519092" Properties=species:S:1:pos:R:3 unique_starting_index=0 config_type=initial n_minim_iter=7 stress="0.0001843222802383443 -7.956368260483946e-05 -6.140569470263729e-17 -7.956368260483946e-05 0.00012113616204537591 4.106505833238869e-16 -6.140569470263729e-17 4.106505833238869e-16 0.00023563345711305616" pbc="T T T"
Si       2.03324567       0.62303678      11.19181778
Si       0.93413268       0.79009099       4.17477305
Si       3.90151104       2.20321876       2.84227167
Si       5.00062403       2.03616456       9.85931639
Si       4.56779777       0.97690777       4.83893478
Si       4.31819632       0.64986122      11.85597950
Si       1.36695895       1.84934778       9.19515467
Si       1.61656040       2.17639432       2.17810995
Si       2.40919183       0.87134416       6.03239369
Si       0.55818653       0.54178361      13.04943841
Si       3.52556489       1.95491138       8.00169576
Si       5.37657018       2.28447193       0.98465104
Si       2.95930787       0.10682061      -0.00000000
Si       0.00807049       1.30630716       7.01704472
14
Lattice="5.920901279672779 0.21603981549992496 1.0554917834537293e-16 0.017273550296910453 2.6110700445543076 7.629102885231614e-14 1.3593557476660388e-14 -4.096613010372272e-13 14.015530401469913" Properties=species:S:1:pos:R:3 unique_starting_index=0 config_type=initial n_minim_iter=8 stress="-0.0004991588999443431 0.00034675135571596023 -6.811208504276527e-16 0.00034675135571596023 -0.0005870334959720821 2.749596209589433e-16 -6.811208504276527e-16 2.749596209589433e-16 -0.0008896692451981365" pbc="T T T"
Si       2.03666039       0.61571875      11.17436837
Si       0.93242702       0.79783618       4.16660317
Si       3.90151444       2.21139111       2.84116203
Si       5.00574781       2.02927368       9.84892723
Si       4.57176548       0.98716934       4.83355261
Si       4.31822322       0.64242540      11.84131781
Si       1.36640935       1.83994052       9.18197779
Si       1.61995161       2.18468446       2.17421259
Si       2.41169491       0.87358996       6.02028749
Si       0.55739251       0.53996497      13.02805270
Si       3.52647992       1.95351990       7.99524291
Si       5.38078232       2.28714489       0.98747771
Si       2.96045064       0.10801991      -0.00000000
Si       0.00863678       1.30553502       7.00776520
14
Lattice="5.922079409379419 0.21158736238081904 6.027589529061688e-19 0.015274273245624219 2.6117741795193146 7.631422985219111e-14 1.3671898608745391e-14 -4.10102577687418e-13 14.030734847887802" Properties=species:S:1:pos:R:3 unique_starting_index=0 config_type=initial n_minim_iter=9 stress="-0.00040682069973062035 0.0007276945986026927 -7.162443231656867e-16 0.0007276945986026927 0.0007786827231442858 8.366204453480248e-17 -7.162443231656867e-16 8.366204453480248e-17 -0.0003433440596497979" pbc="T T T"
Si       2.03562398       0.59322718      11.18256265
Si       0.93305286       0.81845359       4.16719523
Si       3.90172970       2.23013436       2.84817219
Si       5.00430082       2.00490795       9.86353962
Si       4.57421349       1.00878189       4.83651735
Si       4.31654276       0.61448624      11.85188478
Si       1.36314019       1.81457965       9.19421749
Si       1.62081092       2.20887530       2.17885007
Si       2.40514459       0.87723230       6.02291783
Si       0.56353225       0.53444847      13.03828526
Si       3.53220910       1.94612924       8.00781701
Si       5.37382143       2.28891308       0.99244959
Si       2.96103970       0.10579368      -0.00000000
Si       0.00763714       1.30588709       7.01536742
14
Lattice="5.931154470786364 0.15613988209108012 -1.6539271801682445e-15 -0.009111028001654524 2.6066870744277346 7.618892425833464e-14 1.3614061429205793e-14 -4.1014872817793037e-13 14.03227799860111" Properties=species:S:1:pos:R:3 unique_starting_index=0 config_type=initial n_minim_iter=10 stress="0.0007364004164244501 -0.000593600038549874 -3.066351942487839e-16 -0.000593600038549874 -0.0008119632079927937 2.0237666971279771e-16 -3.066351942487839e-16 2.0237666971279771e-16 0.0004488637880713737" pbc="T T T"
Si       2.03593063       0.54930158      11.18036088
Si       0.92509109       0.83211189       4.16422188
Si       3.88611281       2.21352537       2.85191712
Si       4.99695235       1.93071506       9.86805612
Si       4.57557665       0.99058028       4.83956503
Si       4.31659955       0.54697308      11.85570403
Si       1.34646680       1.77224668       9.19271297
Si       1.60544390       2.21585387       2.17657397
Si       2.39967446       0.85912538       6.02024142
Si       0.56134727       0.52228810      13.03638042
Si       3.52236899       1.90370158       8.01203658
Si       5.36069618       2.24053886       0.99589758
Si       2.96557724       0.07806994      -0.00000000
Si      -0.00455551       1.30334354       7.01613900
14
Lattice="5.945726961877824 0.09675066657483539 -3.445208117842074e-15 -0.035205897083928996 2.6010787454136906 7.60486532856676e-14 1.3493476706995849e-14 -4.0952278222301143e-13 14.010595817672101" Properties=species:S:1:pos:R:3 unique_starting_index=0 config_type=initial n_minim_iter=11 stress="-0.0014984172798154203 -0.0014331306387334874 -1.3728854915130424e-16 -0.0014331306387334874 -0.0008974565746574659 3.652490132271639e-16 -1.3728854915130424e-16 3.652490132271639e-16 -0.0004216884631217959" pbc="T T T"
Si       2.04469434       0.47442846      11.15813242
Si       0.91056620       0.87448625       4.15283451
Si       3.86582673       2.22340095       2.85246340
Si       4.99995487       1.82334316       9.85776131
Si       4.58292014       0.99790159       4.84376311
Si       4.31806735       0.44776378      11.84906102
Si       1.32760093       1.69992782       9.16683271
Si       1.59245371       2.25006563       2.16153480
Si       2.39979862       0.84601672       5.99901868
Si       0.55546192       0.50289799      13.00431659
Si       3.51072245       1.85181270       8.01157713
Si       5.35505915       2.19493142       1.00627923
Si       2.97286348       0.04837533      -0.00000000
Si      -0.01760295       1.30053937       7.00529791
14
Lattice="5.948173205433364 0.12307847816600592 -2.6568964901882736e-15 -0.023520991817478507 2.6013787142891664 7.60462340091159e-14 1.3556066338758447e-14 -4.0986723436304604e-13 14.022389017297169" Properties=species:S:1:pos:R:3 unique_starting_index=0 config_type=initial n_minim_iter=12 stress="0.00014547605960549555 -0.0004095898242511298 -5.348645597553276e-16 -0.0004095898242511298 0.000495737805149893 2.673043830436716e-16 -5.348645597553276e-16 2.673043830436716e-16 0.0002676340836586268" pbc="T T T"
Si       2.04633666       0.48576416      11.17157164
Si       0.91598945       0.87646444       4.16037713
Si       3.87831555       2.23869303       2.85081738
Si       5.00866277       1.84799276       9.86201189
Si       4.58703753       1.01327631       4.85019170
Si       4.32346178       0.47203077      11.86138621
Si       1.33761468       1.71118089       9.17219732
Si       1.60119043       2.25242642       2.16100281
Si       2.40521816       0.85663735       6.00756647
Si       0.55710794       0.50559124      13.01876098
Si       3.51943405       1.86781984       8.01482255
Si       5.36754427       2.21886595       1.00362804
Si       2.97408660       0.06153924      -0.00000000
Si      -0.01176050       1.30068936       7.01119451
14
Lattice="5.945123544309464 0.1385303510233949 -2.166720207984877e-15 -0.016612601237848246 2.5998129767548472 7.599529111495637e-14 1.3660268994427085e-14 -4.104150107187015e-13 14.041384168943292" Properties=species:S:1:pos:R:3 unique_starting_index=0 config_type=initial n_minim_iter=13 stress="-0.00019425670283203039 -6.897184101521441e-05 -1.1320435391160927e-15 -6.897184101521441e-05 0.0008902776480428876 2.2275159213150722e-16 -1.1320435391160927e-15 2.2275159213150722e-16 0.0003680633383988725" pbc="T T T"
Si       2.04346841       0.48122482      11.19123973
Si       0.92078706       0.88794685       4.17054764
Si       3.88504253       2.25711851       2.85014444
Si       5.00772389       1.85039648       9.87083653
Si       4.58378065       1.03135713       4.85893770
Si       4.32559836       0.47634488      11.87962978
Si       1.34473029       1.70698620       9.18244647
Si       1.60291258       2.26199844       2.16175439
Si       2.40359352       0.86614698       6.02317129
Si       0.56066195       0.50302468      13.04386337
Si       3.52491742       1.87219635       8.01821288
Si       5.36784899       2.23531864       0.99752080
Si       2.97256177       0.06926518      -0.00000000
Si      -0.00830630       1.29990649       7.02069208
14
Lattice="5.950767329669877 0.13821046097337925 -2.1698422501399745e-15 -0.016594192592109543 2.596180451977693 7.589055986936825e-14 1.3693985672872634e-14 -4.1058097429954227e-13 14.047322832855757" Properties=species:S:1:pos:R:3 unique_starting_index=0 config_type=initial n_minim_iter=14 stress="0.0003258472538225883 0.00021932490969708593 -9.995959178355511e-16 0.00021932490969708593 0.0003036718214295601 1.1125092087974024e-16 -9.995959178355511e-16 1.1125092087974024e-16 0.00015216525198666814" pbc="T T T"
Si       2.04540431       0.46232396      11.19691242
Si       0.92168226       0.90487150       4.17325101
Si       3.88876883       2.27206695       2.85041041
Si       5.01249088       1.82951942       9.87407183
Si       4.58710889       1.04666369       4.86327025
Si       4.33074501       0.45874223      11.88693166
Si       1.34706425       1.68772722       9.18405259
Si       1.60342813       2.27564869       2.16039117
Si       2.40416131       0.87010440       6.02727209
Si       0.56292526       0.49709106      13.05093351
Si       3.53001182       1.86428652       8.02005074
Si       5.37124788       2.23729985       0.99638932
Si       2.97538366       0.06910523      -0.00000000
Si      -0.00829710       1.29809023       7.02366142
14
Lattice="5.95654241043425 0.11493536849991984 -2.897264660001543e-15 -0.026680481389237926 2.590334697614595 7.573081593254895e-14 1.3595780631953995e-14 -4.105949061943242e-13 14.048076392556984" Properties=species:S:1:pos:R:3 unique_starting_index=0 config_type=initial n_minim_iter=15 stress="0.00016104453475915254 0.0001652689685212377 -1.2083059790285251e-15 0.0001652689685212377 -0.0011519734915898811 -8.603322927602976e-17 -1.2083059790285251e-15 -8.603322927602976e-17 -0.0004893711333553639" pbc="T T T"
Si       2.04811792       0.42121469      11.19941104
Si       0.91681305       0.93142034       4.17537284
Si       3.88174401       2.28405538       2.84866536
Si       5.01304888       1.77384972       9.87270355
Si       4.58565708       1.05385717       4.86705144
Si       4.33581629       0.41371323      11.89108963
Si       1.34420484       1.65141289       9.18102496
Si       1.59404564       2.29155684       2.15698676
Si       2.40215807       0.86745676       6.02705091
Si       0.56277289       0.48517828      13.05108911
Si       3.52770386       1.83781331       8.02102548
Si       5.36708904       2.22009179       0.99698729
Si       2.97827121       0.05746768      -0.00000000
Si      -0.01334024       1.29516735       7.02403820
14
Lattice="5.9582543536253265 0.08813959902657553 -3.6731441175977036e-15 -0.03854607182224623 2.5897287090153314 7.572848052194909e-14 1.3613557404098798e-14 -4.104971879436803e-13 14.045424144163475" Properties=species:S:1:pos:R:3 unique_starting_index=0 config_type=initial n_minim_iter=16 stress="-0.0015862081994326399 -0.0007784540576350387 -1.3314903873034462e-15 -0.0007784540576350387 -0.001114469901013816 1.1472404914163745e-16 -1.3314903873034462e-15 1.1472404914163745e-16 -0.00044787574176778774" pbc="T T T"
Si       2.05060951       0.39036888      11.19789141
Si       0.90924463       0.94856527       4.17517934
Si       3.86909877       2.28749943       2.84753273
Si       5.01046365       1.72930303       9.87024481
Si       4.58085534       1.04910926       4.86634877
Si       4.33725315       0.37796449      11.88906085
Si       1.33885294       1.62875905       9.17907537
Si       1.58245513       2.29990382       2.15636330
Si       2.39918111       0.86183523       6.02214828
Si       0.56067303       0.47709892      13.04486035
Si       3.52052717       1.81603307       8.02327587
Si       5.35903525       2.20076939       1.00056380
Si       2.97912718       0.04406980      -0.00000000
Si      -0.01927304       1.29486435       7.02271207
14
Lattice="5.960830265212989 0.0908060718438973 -3.610209449529631e-15 -0.037558618266070556 2.595078983449215 7.58858599490311e-14 1.3575121121137747e-14 -4.102570763472097e-13 14.037576723833435" Properties=species:S:1:pos:R:3 unique_starting_index=0 config_type=initial n_minim_iter=17 stress="0.0014698409364840342 -0.00035907127773774044 -1.4645008731288975e-15 -0.00035907127773774044 0.001650551027332368 1.6715245567649197e-16 -1.4645008731288975e-15 1.6715245567649197e-16 0.0008125047001428154" pbc="T T T"
Si       2.05642955       0.38856082      11.19319146
Si       0.90520627       0.95438171       4.17440310
Si       3.86684210       2.29732424       2.84438526
Si       5.01806537       1.73150335       9.86317362
Si       4.57982165       1.04633058       4.85650384
Si       4.34264443       0.38741802      11.87529220
Si       1.34344999       1.63955448       9.18107288
Si       1.58062721       2.29846703       2.16228452
Si       2.40200175       0.86549000       6.01326675
Si       0.55963407       0.47745253      13.03205511
Si       3.52126990       1.82039506       8.02430997
Si       5.36363757       2.20843253       1.00552161
Si       2.98041513       0.04540304      -0.00000000
Si      -0.01877931       1.29753949       7.01878836
14
Lattice="5.952273525907575 0.10253295899218232 -3.2829536010223716e-15 -0.03238137963408639 2.5950038447147943 7.58792006736554e-14 1.3520786536771393e-14 -4.1031234437693594e-13 14.03957908729786" Properties=species:S:1:pos:R:3 unique_starting_index=0 config_type=initial n_minim_iter=18 stress="-0.001372179133533561 0.0004482389208296485 -1.919945844366204e-15 0.0004482389208296485 0.000812279347095269 -5.655932172819662e-17 -1.919945844366204e-15 -5.655932172819662e-17 0.000671832741050232" pbc="T T T"
Si       2.05593928       0.38852836      11.19921849
Si       0.90400680       0.96024004       4.17942895
Si       3.86395287       2.30900844       2.84036059
Si       5.01588535       1.73729677       9.86015014
Si       4.57001672       1.04927863       4.85237196
Si       4.34220288       0.40202273      11.87216150
Si       1.34987543       1.64825817       9.18720713
Si       1.57768927       2.29551408       2.16741759
Si       2.40022596       0.87242738       6.01601596
Si       0.55972011       0.47634102      13.03580551
Si       3.51966619       1.82510943       8.02356312
Si       5.36017203       2.22119578       1.00377358
Si       2.97613676       0.05126648      -0.00000000
Si      -0.01619069       1.29750192       7.01978954
14
Lattice="5.9621131624127734 0.08234566291528611 -3.910087503810909e-15 -0.04113040227567543 2.590417122511597 7.575320851813377e-14 1.3438723938048248e-14 -4.0986563021419837e-13 14.024254826240048" Properties=species:S:1:pos:R:3 unique_starting_index=0 config_type=initial n_minim_iter=19 stress="-0.0014340207051570508 -0.0005715195750962159 -2.0143768063305224e-15 -0.0005715195750962159 -0.0012059459043691745 -1.8743453969735767e-16 -2.0143768063305224e-15 -1.8743453969735767e-16 -0.0006951151192910633" pbc="T T T"
Si       2.06471523       0.34194844      11.19211382
Si       0.89577615       0.99443296       4.17998641
Si       3.85626753       2.33081435       2.83214101
Si       5.02520662       1.67832983       9.84426842
Si       4.56810732       1.05628270       4.84669601
Si       4.35449722       0.36244435      11.85882342
Si       1.35287544       1.61648008       9.17755882
Si       1.56648554       2.31031843       2.16543140
Si       2.40141793       0.87464412       6.00928590
Si       0.55907345       0.46173727      13.02141332
Si       3.51956483       1.79811866       8.01496892
Si       5.36190931       2.21102552       1.00284151
Si       2.98105658       0.04117283      -0.00000000
Si      -0.02056520       1.29520856       7.01212741
14
Lattice="5.966690044629115 0.0855464775694812 -3.814063295871876e-15 -0.03967998340025984 2.590087102182461 7.574255673357884e-14 1.3458755177824044e-14 -4.099683711948372e-13 14.027835364260712" Properties=species:S:1:pos:R:3 unique_starting_index=0 config_type=initial n_minim_iter=20 stress="0.0003333451817821406 0.0001146180268995735 -1.834778955357649e-15 0.0001146180268995735 -0.0007318078444146812 -1.3056191812925926e-17 -1.834778955357649e-15 -1.3056191812925926e-17 -0.00047045420361483336" pbc="T T T"
Si       2.06699689       0.33810445      11.19477341
Si       0.89650814       0.99971234       4.18085573
Si       3.86001317       2.33752913       2.83306195
Si       5.03050192       1.67592124       9.84697963
Si       4.57299799       1.06468030       4.84914850
Si       4.35719708       0.35868297      11.86306619
Si       1.35401207       1.61095328       9.17868686
Si       1.56981298       2.31695061       2.16476918
Si       2.40274166       0.87770504       6.01078412
Si       0.56076337       0.46011175      13.02470180
Si       3.52426840       1.79792854       8.01705125
Si       5.36624669       2.21552183       1.00313356
Si       2.98334502       0.04277324      -0.00000000
Si      -0.01983999       1.29504355       7.01391768
14
Lattice="5.999014806273422 0.059749311419184103 -4.662966885143667e-15 -0.05083833704128281 2.585543190683482 7.562532045054618e-14 1.3356263834816392e-14 -4.1133860243908077e-13 14.07565470455514" Properties=species:S:1:pos:R:3 unique_starting_index=0 config_type=initial n_minim_iter=21 stress="0.0022141159192961566 0.0013684512589185597 -1.409474569808099e-15 0.0013684512589185597 -0.00015514751060197182 1.9752218247648894e-16 -1.409474569808099e-15 1.9752218247648894e-16 0.0023932752396103435" pbc="T T T"
Si       2.09425839       0.21708102      11.23675737
Si       0.87982985       1.10556523       4.19893002
Si       3.85391808       2.42821148       2.83889734
Si       5.06834662       1.53972727       9.87672469
Si       4.59187147       1.14216101       4.87234762
Si       4.38123157       0.24023456      11.91017497
Si       1.35630500       1.50313150       9.20330708
Si       1.56694490       2.40505794       2.16547973
Si       2.40012809       0.90262013       6.02002021
Si       0.57396015       0.42002612      13.05784756
Si       3.54804838       1.74267237       8.05563449
Si       5.37421632       2.22526638       1.01780714
Si       2.99950740       0.02987466      -0.00000000
Si      -0.02541917       1.29277160       7.03782735
