16
Lattice="8.380151132775643 0.4695816437357629 -0.026508037813278755 2.1548272155961006 8.102286870533089 0.950770414613565 2.577850780416998 3.4617515815162525 9.60588674010278" Properties=species:S:1:pos:R:3 unique_starting_index=30 config_type=initial n_minim_iter=1 energy=-2618.54216372128 free_energy=-2618.54216372128 pbc="T T T"
Si       7.76702817       6.73465787       6.65664826
Si       5.34580096       5.29896223       3.87350085
Si       3.50851332       5.71037942       2.92669573
Si       9.60431581       6.32324068       7.60345339
Si       7.79331164       5.83970503       8.57723460
Si       5.31951749       6.19391506       1.95291451
Si       5.60567163       5.21991040       0.09467914
Si       7.50715750       6.81370969      10.43546998
Si       3.94214422       6.58908770       4.80422378
Si       9.17068491       5.44453240       5.72592534
Si      10.38054520       6.38815325       4.26793505
Si       2.73228393       5.64546685       6.26221407
Si       3.53952814       4.51403991       4.66985881
Si       9.57330099       7.51958019       5.86029031
Si       5.86694977       8.23720729       1.87824682
Si       7.24587936       3.79641280       8.65190230
16
Lattice="8.379620792781003 0.46947789786754274 -0.02648259341332199 2.1546359382855984 8.10152308196071 0.9506792797521695 2.577693260550126 3.461371652111958 9.605261103577119" Properties=species:S:1:pos:R:3 unique_starting_index=30 config_type=initial n_minim_iter=2 stress="-2.7974347446215028e-05 -0.00012469349538247936 0.00016220618198315272 -0.00012469349538247936 6.970921273389806e-05 5.0264453320186536e-05 0.00016220618198315272 5.0264453320186536e-05 -0.0003397007216380149" pbc="T T T"
Si       7.76651932       6.73394314       6.65621397
Si       5.34543067       5.29842949       3.87324382
Si       3.50826301       5.70981227       2.92649202
Si       9.60368698       6.32256036       7.60296577
Si       7.79281064       5.83907912       8.57668614
Si       5.31913935       6.19329351       1.95277165
Si       5.60527281       5.21938147       0.09467423
Si       7.50667718       6.81299116      10.43478356
Si       3.94186154       6.58841707       4.80388775
Si       9.17008845       5.44395556       5.72557004
Si      10.37986531       6.38747044       4.26767695
Si       2.73208468       5.64490219       6.26178084
Si       3.53928270       4.51357836       4.66955392
Si       9.57266730       7.51879427       5.85990387
Si       5.86652238       8.23639998       1.87811183
Si       7.24542762       3.79597265       8.65134596
16
Lattice="8.379399204437167 0.469753164820693 -0.02693143082937023 2.1548258546648285 8.100946487151704 0.9504794811855051 2.577246341541453 3.4610075733064303 9.60577354049525" Properties=species:S:1:pos:R:3 unique_starting_index=30 config_type=initial n_minim_iter=3 stress="-0.00013523567230824406 0.00021970067069504396 -0.0002813314307183329 0.00021970067069504396 -0.0003998471429983534 -0.00014554272467783903 -0.0002813314307183329 -0.00014554272467783903 0.00046576722656052594" pbc="T T T"
Si       7.76622549       6.73351899       6.65617833
Si       5.34524591       5.29818823       3.87314326
Si       3.50823155       5.70939713       2.92638594
Si       9.60323985       6.32231009       7.60293565
Si       7.79240048       5.83879314       8.57682261
Si       5.31907092       6.19291408       1.95249898
Si       5.60526070       5.21914421       0.09429351
Si       7.50621070       6.81256301      10.43502808
Si       3.94177190       6.58792030       4.80387188
Si       9.16969950       5.44378693       5.72544971
Si      10.37957595       6.38728270       4.26735134
Si       2.73189545       5.64442453       6.26197025
Si       3.53907992       4.51321124       4.66966932
Si       9.57239148       7.51849599       5.85965227
Si       5.86652777       8.23596286       1.87784036
Si       7.24494363       3.79574437       8.65148123
16
Lattice="8.379336004163294 0.46964258864531205 -0.026889618576291185 2.154710683130964 8.100897594155771 0.950639342037624 2.5772186020443337 3.4611799444669704 9.605492324379965" Properties=species:S:1:pos:R:3 unique_starting_index=30 config_type=initial n_minim_iter=4 stress="0.000107559689382874 0.0003154219805851712 -5.4738138679612475e-05 0.0003154219805851712 0.0001733817370478985 -0.00020301707396786116 -5.4738138679612475e-05 -0.00020301707396786116 -0.0003506894873981953" pbc="T T T"
Si       7.76620825       6.73333715       6.65615128
Si       5.34505704       5.29838297       3.87309077
Si       3.50818263       5.70922556       2.92630083
Si       9.60308266       6.32249457       7.60294122
Si       7.79249713       5.83910612       8.57673425
Si       5.31876816       6.19261401       1.95250780
Si       5.60499386       5.21894729       0.09445375
Si       7.50627143       6.81277283      10.43478830
Si       3.94177680       6.58784630       4.80374115
Si       9.16948849       5.44387383       5.72550090
Si      10.37932623       6.38727272       4.26749326
Si       2.73193906       5.64444741       6.26174879
Si       3.53895343       4.51297434       4.66978119
Si       9.57231186       7.51874579       5.85946086
Si       5.86629408       8.23604235       1.87812081
Si       7.24497121       3.79567777       8.65112124
16
Lattice="8.379080244925989 0.4690588837040712 -0.02678760515201161 2.154118814688486 8.100447692137882 0.9511017592674196 2.5770112921708646 3.461305906350493 9.60631783137733" Properties=species:S:1:pos:R:3 unique_starting_index=30 config_type=initial n_minim_iter=5 stress="-5.154952196300124e-05 -0.00022360805290302075 0.00011354459482036347 -0.00022360805290302075 -0.00015612803729196442 0.00026606572303326006 0.00011354459482036347 0.00026606572303326006 0.0003125870819178297" pbc="T T T"
Si       7.76563627       6.73279042       6.65700186
Si       5.34457409       5.29802206       3.87363012
Si       3.50774341       5.70881928       2.92675828
Si       9.60246694       6.32199320       7.60387371
Si       7.79204475       5.83877302       8.57767768
Si       5.31816560       6.19203946       1.95295431
Si       5.60445515       5.21835488       0.09473023
Si       7.50575520       6.81245760      10.43590175
Si       3.94128850       6.58749796       4.80437503
Si       9.16892185       5.44331452       5.72625696
Si      10.37862905       6.38651336       4.26819484
Si       2.73158131       5.64429912       6.26243715
Si       3.53857705       4.51267945       4.67039255
Si       9.57163330       7.51813303       5.86023944
Si       5.86558270       8.23540709       1.87869145
Si       7.24462765       3.79540540       8.65194054
16
Lattice="8.377752068038939 0.4674449385920529 -0.027645443538951698 2.15220997820505 8.09881231272944 0.9507231187679487 2.575027317037928 3.4600083082918123 9.60691680321284" Properties=species:S:1:pos:R:3 unique_starting_index=30 config_type=initial n_minim_iter=6 stress="3.1267212956973837e-05 -0.0003087751789826684 -2.5890095818081563e-06 -0.0003087751789826684 0.0005200288298740882 -0.0005258652499392377 -2.5890095818081563e-06 -0.0005258652499392377 0.00026237582945229983" pbc="T T T"
Si       7.76269240       6.72986927       6.65683850
Si       5.34229696       5.29639629       3.87315598
Si       3.50594081       5.70672749       2.92632760
Si       9.59904855       6.31953807       7.60366688
Si       7.78947000       5.83642272       8.57788094
Si       5.31551937       6.18984284       1.95211354
Si       5.60244930       5.21702059       0.09361817
Si       7.50254006       6.80924497      10.43637631
Si       3.93910286       6.58553112       4.80386879
Si       9.16588651       5.44073444       5.72612569
Si      10.37533082       6.38353170       4.26742958
Si       2.72965854       5.64273386       6.26256489
Si       3.53641897       4.51063155       4.67080509
Si       9.56857039       7.51563401       5.85918939
Si       5.86295065       8.23316629       1.87774919
Si       7.24203872       3.79309927       8.65224529
16
Lattice="8.37770545899695 0.467641857528785 -0.028017791659134168 2.1524043994249085 8.09785094506985 0.9521112597308288 2.574594023651177 3.4613524914410423 9.607495505114109" Properties=species:S:1:pos:R:3 unique_starting_index=30 config_type=initial n_minim_iter=7 stress="-0.00025316900844538055 0.00017431149889551587 -4.3413228816292065e-05 0.00017431149889551587 0.00042024938964769923 0.00016894838925367924 -4.3413228816292065e-05 0.00016894838925367924 0.00010839220773273306" pbc="T T T"
Si       7.76254138       6.73023500       6.65782573
Si       5.34216251       5.29661030       3.87376324
Si       3.50595388       5.70621373       2.92711880
Si       9.59875000       6.32063156       7.60447017
Si       7.78945095       5.83753642       8.57879572
Si       5.31525294       6.18930887       1.95279325
Si       5.60242791       5.21669037       0.09404634
Si       7.50227597       6.81015493      10.43754263
Si       3.93910347       6.58556937       4.80471180
Si       9.16560042       5.44127593       5.72687717
Si      10.37515489       6.38362720       4.26811442
Si       2.72954899       5.64321810       6.26347456
Si       3.53602902       4.51065406       4.67172121
Si       9.56867486       7.51619124       5.85986776
Si       5.86303868       8.23255340       1.87878596
Si       7.24166520       3.79429189       8.65280301
16
Lattice="8.378917016275864 0.4671749042695506 -0.02809388347427583 2.1523375886006413 8.096411929227823 0.9524665587958633 2.5747012028796674 3.4610974972435455 9.607594690252421" Properties=species:S:1:pos:R:3 unique_starting_index=30 config_type=initial n_minim_iter=8 stress="0.00031844991799089673 -4.0544247006013526e-05 -3.458037822441628e-05 -4.0544247006013526e-05 -0.00035447003753263625 7.132200629813108e-05 -3.458037822441628e-05 7.132200629813108e-05 -2.437288614405515e-05" pbc="T T T"
Si       7.76333429       6.72905054       6.65807823
Si       5.34262152       5.29563379       3.87388913
Si       3.50616145       5.70501057       2.92733845
Si       9.59979436       6.31967376       7.60462891
Si       7.79044264       5.83668640       8.57914527
Si       5.31551317       6.18799793       1.95282209
Si       5.60288279       5.21566572       0.09411926
Si       7.50307302       6.80901861      10.43784810
Si       3.93937996       6.58453076       4.80480221
Si       9.16657585       5.44015357       5.72716515
Si      10.37626581       6.38217684       4.26823872
Si       2.72968999       5.64250749       6.26372865
Si       3.53614202       4.50979805       4.67200963
Si       9.56981378       7.51488628       5.85995774
Si       5.86344774       8.23099982       1.87902695
Si       7.24250806       3.79368452       8.65294041
16
Lattice="8.377023318154336 0.4647308090572389 -0.027750196192336995 2.1497069205256896 8.093352406203847 0.9552767706009369 2.5734441052520536 3.462301492869728 9.6103035546481" Properties=species:S:1:pos:R:3 unique_starting_index=30 config_type=initial n_minim_iter=9 stress="-0.00045476111069387863 0.0003854569341972189 0.0007387107886752779 0.0003854569341972189 -0.00026334557850716297 -0.0001339833223067064 0.0007387107886752779 -0.0001339833223067064 0.00032680694331079066" pbc="T T T"
Si       7.76050641       6.72720594       6.66158563
Si       5.33966794       5.29317877       3.87624450
Si       3.50376734       5.70167066       2.92998333
Si       9.59640700       6.31871405       7.60784680
Si       7.78897249       5.83611943       8.58402474
Si       5.31120185       6.18426527       1.95380539
Si       5.59935621       5.21307786       0.09516011
Si       7.50081813       6.80730685      10.44267001
Si       3.93713727       6.58314993       4.80661339
Si       9.16303707       5.43723478       5.73121674
Si      10.37212533       6.37774683       4.27091706
Si       2.72804901       5.64263787       6.26691307
Si       3.53341935       4.50807634       4.67501263
Si       9.56675500       7.51230837       5.86281750
Si       5.85954379       8.22752058       1.88186621
Si       7.24063055       3.79286413       8.65596392
16
Lattice="8.376830506086412 0.4629760611856644 -0.029222711816871492 2.147850484810415 8.092395357309627 0.9562707018818043 2.5709217739032844 3.463183030806691 9.610031802939554" Properties=species:S:1:pos:R:3 unique_starting_index=30 config_type=initial n_minim_iter=10 stress="-0.0003462674389130579 -3.386655671391294e-05 -0.00018546870081044821 -3.386655671391294e-05 0.00015742550574606378 1.987537722558338e-05 -0.00018546870081044821 1.987537722558338e-05 -6.551294843623553e-05" pbc="T T T"
Si       7.75800676       6.72643957       6.66110745
Si       5.33759601       5.29211488       3.87597235
Si       3.50192203       5.70042806       2.93036912
Si       9.59368074       6.31812638       7.60671068
Si       7.78674464       5.83584970       8.58377278
Si       5.30885813       6.18270475       1.95330701
Si       5.59782624       5.21176711       0.09464271
Si       7.49777652       6.80678734      10.44243708
Si       3.93493358       6.58279136       4.80632060
Si       9.16066918       5.43576309       5.73075919
Si      10.36980414       6.37551212       4.26991851
Si       2.72579863       5.64304233       6.26716128
Si       3.53127311       4.50752411       4.67526206
Si       9.56432965       7.51103034       5.86181773
Si       5.85721033       8.22606205       1.88210240
Si       7.23839243       3.79249240       8.65497739
16
Lattice="8.378128659486727 0.4612153161484526 -0.028640556842383733 2.1466990804963433 8.089815711996396 0.9583445309866826 2.5712193151371086 3.4639819930714904 9.610986982356996" Properties=species:S:1:pos:R:3 unique_starting_index=30 config_type=initial n_minim_iter=11 stress="0.00032555405952784596 0.00017930511164178004 0.00011915738630017785 0.00017930511164178004 -0.00046017604103740456 0.00016581114690395734 0.00011915738630017785 0.00016581114690395734 -0.0001079392190979219" pbc="T T T"
Si       7.75906354       6.72500524       6.66316929
Si       5.33698351       5.29000778       3.87752166
Si       3.50117289       5.69753291       2.93226277
Si       9.59487416       6.31748011       7.60842819
Si       7.78881064       5.83513953       8.58635611
Si       5.30723642       6.17987349       1.95433485
Si       5.59701635       5.20964756       0.09499782
Si       7.49903071       6.80536546      10.44569314
Si       3.93493262       6.58135888       4.80691677
Si       9.16111443       5.43365415       5.73377419
Si      10.37022285       6.37194924       4.27216964
Si       2.72582421       5.64306378       6.26852131
Si       3.53083557       4.50622752       4.67725758
Si       9.56521149       7.50878550       5.86343338
Si       5.85612359       8.22295427       1.88434842
Si       7.23992346       3.79205875       8.65634254
16
Lattice="8.38236523683073 0.4539494232148054 -0.025904639507851275 2.1414863428172226 8.082549211699268 0.9600150724924622 2.572852817503545 3.4605796513046325 9.612566109511835" Properties=species:S:1:pos:R:3 unique_starting_index=30 config_type=initial n_minim_iter=12 stress="-0.0001996247010843866 -0.0001805627087053046 -0.00010668302248848466 -0.0001805627087053046 1.3568296370720439e-06 -0.00034937375833426847 -0.00010668302248848466 -0.00034937375833426847 7.367449451288519e-05" pbc="T T T"
Si       7.76229779       6.71701814       6.66776390
Si       5.33440661       5.28006014       3.87891264
Si       3.49586880       5.68477484       2.93372641
Si       9.60083560       6.31230344       7.61295013
Si       7.79685988       5.82824073       8.59253868
Si       5.29984451       6.16883756       1.95413786
Si       5.59200625       5.20209401       0.09309925
Si       7.50469814       6.79498428      10.45357729
Si       3.93322497       6.57495720       4.80479923
Si       9.16347943       5.42212109       5.74187731
Si      10.37257302       6.35738509       4.27690697
Si       2.72413137       5.63969319       6.26976958
Si       3.52908530       4.49967715       4.68302221
Si       9.56761910       7.49740114       5.86365434
Si       5.85107663       8.21179469       1.88587051
Si       7.24562777       3.78528359       8.66080603
16
Lattice="8.383086280138613 0.4510973861827306 -0.024866526989624837 2.1392053586007056 8.079520536133865 0.9611501572473901 2.5731140261131915 3.460005616713324 9.611122090805996" Properties=species:S:1:pos:R:3 unique_starting_index=30 config_type=initial n_minim_iter=13 stress="-0.00011341850026390368 -0.00016754242659763793 -0.0001276685870266497 -0.00016754242659763793 0.0003520603112231502 -0.0004980108069235017 -0.0001276685870266497 -0.0004980108069235017 1.0772836916839502e-05" pbc="T T T"
Si       7.76315196       6.71469277       6.66924545
Si       5.33225370       5.27593077       3.87816027
Si       3.49239043       5.67827589       2.93382433
Si       9.60301524       6.31234765       7.61358139
Si       7.80022200       5.82680105       8.59370316
Si       5.29518367       6.16382249       1.95370256
Si       5.58860221       5.19974413       0.09194398
Si       7.50680346       6.79087941      10.45546174
Si       3.93142560       6.57269549       4.80287065
Si       9.16398006       5.41792805       5.74453507
Si      10.37165381       6.35106578       4.27776529
Si       2.72375186       5.63955776       6.26964043
Si       3.52756966       4.49711370       4.68557347
Si       9.56783601       7.49350984       5.86183225
Si       5.84745652       8.20640433       1.88723329
Si       7.24794914       3.78421921       8.66017243
16
Lattice="8.381848223702624 0.4504381788864788 -0.026554832709930483 2.138079894376969 8.079187003033597 0.9621269984103891 2.570424733280316 3.461667167109846 9.608661077579617" Properties=species:S:1:pos:R:3 unique_starting_index=30 config_type=initial n_minim_iter=14 stress="-7.689568507072534e-05 -7.485726771619335e-05 -0.00021936813643089125 -7.485726771619335e-05 0.0005755709037304678 -0.00037244715660334036 -0.00021936813643089125 -0.00037244715660334036 -0.00016196168396497089" pbc="T T T"
Si       7.76126136       6.71592812       6.66796509
Si       5.32909149       5.27536423       3.87626816
Si       3.48929386       5.67576097       2.93338480
Si       9.60105899       6.31553138       7.61084844
Si       7.79901653       5.82875539       8.59150471
Si       5.29133632       6.16253696       1.95272854
Si       5.58567192       5.19918575       0.09030826
Si       7.50468093       6.79210660      10.45392498
Si       3.92880689       6.57315386       4.80026669
Si       9.16154596       5.41813849       5.74396656
Si      10.36796188       6.34973938       4.27483509
Si       2.72239097       5.64155297       6.26939815
Si       3.52517383       4.49701722       4.68626783
Si       9.56517902       7.49427513       5.85796541
Si       5.84470744       8.20492352       1.88669544
Si       7.24564541       3.78636883       8.65753781
16
Lattice="8.379927342169148 0.4507863613903557 -0.035244734949196554 2.1368458303423763 8.080832114179984 0.9625444608287476 2.5597759186144478 3.4657502299694802 9.604862094143645" Properties=species:S:1:pos:R:3 unique_starting_index=30 config_type=initial n_minim_iter=15 stress="0.00023922385629093749 6.996903680219121e-05 -0.0003366520107761079 6.996903680219121e-05 0.0005599246456937298 -0.00021552053710142402 -0.0003366520107761079 -0.00021552053710142402 0.000229579498218326" pbc="T T T"
Si       7.75577957       6.72155900       6.66108987
Si       5.32076952       5.27580970       3.87107195
Si       3.48183808       5.67149948       2.92987700
Si       9.59471101       6.32586922       7.60228482
Si       7.79286079       5.83473670       8.58580225
Si       5.28368830       6.16263200       1.94635957
Si       5.58023809       5.20031285       0.08391699
Si       7.49631101       6.79705585      10.44824483
Si       3.92134938       6.57544850       4.79384997
Si       9.15519971       5.42192021       5.73831185
Si      10.35815548       6.34887906       4.26465768
Si       2.71839361       5.64848964       6.26750414
Si       3.51879848       4.49821250       4.68731424
Si       9.55775061       7.49915620       5.84484758
Si       5.84014664       8.20381852       1.88108546
Si       7.23640245       3.79355018       8.65107636
16
Lattice="8.381217951767471 0.449545625873075 -0.038099324960385185 2.1356702629271083 8.080684535286228 0.9649996099718077 2.556191213365644 3.4692378220417797 9.604346212213407" Properties=species:S:1:pos:R:3 unique_starting_index=30 config_type=initial n_minim_iter=16 stress="0.000561506718995842 0.00013641330735401154 -0.00025711853395334457 0.00013641330735401154 0.0003255489975734594 4.201133775212446e-05 -0.00025711853395334457 4.201133775212446e-05 0.0003552170784640038" pbc="T T T"
Si       7.75477569       6.72354315       6.66036015
Si       5.31830374       5.27592483       3.87088635
Si       3.47918330       5.66997933       2.92981698
Si       9.59389613       6.32948865       7.60142952
Si       7.79167821       5.83800794       8.58509403
Si       5.28140122       6.16146004       1.94615247
Si       5.57911441       5.20005099       0.08359977
Si       7.49396501       6.79941699      10.44764673
Si       3.91894907       6.57621107       4.79288291
Si       9.15413035       5.42325692       5.73836359
Si      10.35665949       6.34769173       4.26261940
Si       2.71641994       5.65177626       6.26862709
Si       3.51716468       4.49969039       4.68871818
Si       9.55591474       7.49977760       5.84252832
Si       5.83886846       8.20283612       1.88162602
Si       7.23421096       3.79663187       8.64962048
16
Lattice="8.3823678160284 0.4467664896352883 -0.03858875592488432 2.133125241975828 8.082740849196432 0.9703898160269261 2.5544416996789456 3.4762366336733392 9.603714085550841" Properties=species:S:1:pos:R:3 unique_starting_index=30 config_type=initial n_minim_iter=17 stress="0.0002535568804526263 0.00015416621084308785 6.187596266553815e-05 0.00015416621084308785 -1.0929677980706168e-05 0.0002445823810596418 6.187596266553815e-05 0.0002445823810596418 0.00026205312041676363" pbc="T T T"
Si       7.75448342       6.72818892       6.66199024
Si       5.31545133       5.27755505       3.87352491
Si       3.47502442       5.66915030       2.93095581
Si       9.59491034       6.33659368       7.60455933
Si       7.79245176       5.84381876       8.58673735
Si       5.27748300       6.16192522       1.94877780
Si       5.57615273       5.20057990       0.08660622
Si       7.49378203       6.80516408      10.44890892
Si       3.91643773       6.58013688       4.79174920
Si       9.15349703       5.42560709       5.74376594
Si      10.35525385       6.34643482       4.26437653
Si       2.71468090       5.65930915       6.27113862
Si       3.51542945       4.50245715       4.69273531
Si       9.55450531       7.50328683       5.84277983
Si       5.83588779       8.20248925       1.88609061
Si       7.23404696       3.80325472       8.64942454
16
Lattice="8.386691414191484 0.44192316230768103 -0.03631423224562608 2.1296361728906663 8.086299848998179 0.977753066928286 2.555908340628607 3.484740090553927 9.605816404915345" Properties=species:S:1:pos:R:3 unique_starting_index=30 config_type=initial n_minim_iter=18 stress="-0.0003555246073151087 0.00010139219434589385 0.0004960394144121657 0.00010139219434589385 -0.00019747501468515724 0.0002228448446014338 0.0004960394144121657 0.0002228448446014338 0.0003568792352148448" pbc="T T T"
Si       7.75752688       6.73383416       6.66759780
Si       5.31470904       5.27912894       3.87965744
Si       3.47036159       5.66756481       2.93370978
Si       9.60187434       6.34539829       7.61354546
Si       7.79924768       5.85069254       8.59304311
Si       5.27298825       6.16227056       1.95421213
Si       5.57308358       5.20120325       0.09185202
Si       7.49915234       6.81175986      10.45540322
Si       3.91389431       6.58438716       4.79067856
Si       9.15834162       5.42857595       5.75657668
Si      10.35721123       6.34244045       4.27104787
Si       2.71502470       5.67052265       6.27620737
Si       3.51427089       4.50625586       4.70129935
Si       9.55796504       7.50670724       5.84595589
Si       5.83343955       8.20261283       1.89376014
Si       7.23879638       3.81035027       8.65349510
16
Lattice="8.389225724440639 0.43666181299254064 -0.03572750766211801 2.125175459245914 8.088220953894002 0.982686721243955 2.554873937470626 3.490307965400604 9.605458694102019" Properties=species:S:1:pos:R:3 unique_starting_index=30 config_type=initial n_minim_iter=19 stress="-8.997412681320893e-06 -4.203647148754673e-05 0.00038346880680747113 -4.203647148754673e-05 0.00033570021281946314 -0.0007133765467435022 0.00038346880680747113 -0.0007133765467435022 0.0015974551209829416" pbc="T T T"
Si       7.75766133       6.73677305       6.66952623
Si       5.31161379       5.27841769       3.88289168
Si       3.46547380       5.66337377       2.93373327
Si       9.60380133       6.35181696       7.61868464
Si       7.80199669       5.85335149       8.59485659
Si       5.26727843       6.16183925       1.95756131
Si       5.56965900       5.20068345       0.09547643
Si       7.49961612       6.81450728      10.45694147
Si       3.90939422       6.58770240       4.78655308
Si       9.15988090       5.42748833       5.76586483
Si      10.35505119       6.33607085       4.27414412
Si       2.71422393       5.67911988       6.27827379
Si       3.51150583       4.50882615       4.70831339
Si       9.55776929       7.50636458       5.84410451
Si       5.82971007       8.20170644       1.89866638
Si       7.23956505       3.81348429       8.65375152
16
Lattice="8.399779862218024 0.4242199761345593 -0.03335722284518949 2.1157685405404845 8.09580340269582 1.0030793942190448 2.5543005715329254 3.5151278998727387 9.603382381764042" Properties=species:S:1:pos:R:3 unique_starting_index=30 config_type=initial n_minim_iter=20 stress="0.0011122065957735808 -0.00027007723616607256 -0.00030874242069151096 -0.00027007723616607256 0.00038945626214738517 0.0008804305952201004 -0.00030874242069151096 0.0008804305952201004 -0.0002564358784406142" pbc="T T T"
Si       7.76325302       6.75257099       6.67705972
Si       5.30659596       5.28258029       3.89604483
Si       3.45519735       5.65150244       2.93987130
Si       9.61465162       6.38364884       7.63323325
Si       7.81442226       5.86946914       8.60255804
Si       5.25542671       6.16568214       1.97054651
Si       5.56482924       5.20167664       0.11061733
Si       7.50501973       6.83347464      10.46248722
Si       3.89938628       6.60279409       4.77814364
Si       9.17046270       5.43235719       5.79496091
Si      10.35501363       6.32713723       4.28652851
Si       2.71483534       5.70801405       6.28657604
Si       3.50630081       4.52212448       4.72871059
Si       9.56354816       7.51302680       5.84439397
Si       5.82412099       8.20432334       1.91969365
Si       7.24572799       3.83082794       8.65341090
16
Lattice="8.406783974917149 0.41549942446875493 -0.03166972659770513 2.108984697788805 8.102717798741258 1.0165312775654478 2.553836727967618 3.532057906929248 9.60284932334551" Properties=species:S:1:pos:R:3 unique_starting_index=30 config_type=initial n_minim_iter=21 stress="0.0044111108263491785 -0.0008940350807933843 0.0011414622317339012 -0.0008940350807933843 0.0017694642539397556 0.0003851741918242959 0.0011414622317339012 0.0003851741918242959 0.002291247805157895" pbc="T T T"
Si       7.76814058       6.76369310       6.68314341
Si       5.30146482       5.28658203       3.90456747
Si       3.44709019       5.64147350       2.94380194
Si       9.62251521       6.40880163       7.64390893
Si       7.82284669       5.88017623       8.60815291
Si       5.24675871       6.17009890       1.97955796
Si       5.56155711       5.20339050       0.12164981
Si       7.50804829       6.84688463      10.46606107
Si       3.89123860       6.61402412       4.77099224
Si       9.17836680       5.43625101       5.81671863
Si      10.35437594       6.32013273       4.29497498
Si       2.71522946       5.73014240       6.29273590
Si       3.50293465       4.53159977       4.74519734
Si       9.56667075       7.51867536       5.84251354
Si       5.82011672       8.20762937       1.93380481
Si       7.24948868       3.84264576       8.65390606
