6
Lattice="3.3961899999999994 -3.269754510327914e-16 2.2309994217567707e-32 -0.512569571107761 4.726719481804946 -3.225107082933802e-16 -1.0464147869299148e-47 5.169013323786803e-16 7.57571" Properties=species:S:1:pos:R:3 unique_starting_index=22 config_type=initial n_minim_iter=1 pbc="T T T"
Si       2.95533515       1.58492671       0.12140151
Si      -0.07171472       3.14179277       0.12140151
Si       1.96829557       3.44901536       4.81759778
Si       0.91532486       1.27770412       4.81759778
Si       0.80334968       1.88131613       6.29513244
Si       2.08027075       2.84540335       6.29513244
6
Lattice="3.4308260272413387 0.004699198327134223 -3.2063290126039028e-19 -0.5112568004283347 4.772355833686698 -3.256245406724681e-16 -1.4983239145398935e-33 5.210192005831721e-16 7.636061508849655" Properties=species:S:1:pos:R:3 unique_starting_index=22 config_type=initial n_minim_iter=2 pbc="T T T"
Si       2.98679034       1.60279377       0.12389127
Si      -0.06722111       3.17426126       0.12389127
Si       1.99288889       3.48615577       4.85400475
Si       0.92668034       1.29089926       4.85400475
Si       0.81331869       1.90078001       6.34573184
Si       2.10625053       2.87627502       6.34573184
6
Lattice="4.087543028508392 0.1020201807679784 -6.960980207595322e-18 -0.47492319364752805 5.636662134477108 -3.84597373378822e-16 -2.235396463499474e-32 5.978654941708815e-16 8.762321393141951" Properties=species:S:1:pos:R:3 unique_starting_index=22 config_type=initial n_minim_iter=3 pbc="T T T"
Si       3.58507451       1.94761047       0.17093866
Si       0.02754532       3.79107185       0.17093866
Si       2.46783104       4.19649317       5.53124441
Si       1.14478879       1.54218914       5.53124441
Si       1.00615292       2.27153170       7.29159214
Si       2.60646691       3.46715062       7.29159214
6
Lattice="4.08626419872336 0.15866587920216563 -1.0825995763121121e-17 -0.3958923338947597 5.77987270647165 -3.9436883182624046e-16 -2.9502352958754797e-32 6.225926950603399e-16 9.124723444203108" Properties=species:S:1:pos:R:3 unique_starting_index=22 config_type=initial n_minim_iter=4 pbc="T T T"
Si       3.60434059       2.03640220       0.17412023
Si       0.08603128       3.90213638       0.17412023
Si       2.52204361       4.34565258       5.74071123
Si       1.16832826       1.59288600       5.74071123
Si       1.02007308       2.34670642       7.61635508
Si       2.67029879       3.59183216       7.61635508
6
Lattice="4.0163447945406565 0.20713580507391666 -1.4133166874925028e-17 -0.3178807085399692 5.849679803502138 -3.991318680914285e-16 -3.35790378080588e-32 6.397690540894888e-16 9.376460297466597" Properties=species:S:1:pos:R:3 unique_starting_index=22 config_type=initial n_minim_iter=5 pbc="T T T"
Si       3.56018170       2.09658394       0.17231842
Si       0.13828239       3.96023167       0.17231842
Si       2.52653859       4.43074533       5.88259902
Si       1.17192550       1.62607028       5.88259902
Si       1.01308179       2.39209769       7.84957338
Si       2.68538230       3.66471791       7.84957338
6
Lattice="3.923732924618479 0.2126766797341371 -1.4511228534414562e-17 -0.29619164324968744 5.792597620527629 -3.952370705827323e-16 -1.1134735656254622e-31 6.420085214268329e-16 9.409281948407452" Properties=species:S:1:pos:R:3 unique_starting_index=22 config_type=initial n_minim_iter=6 pbc="T T T"
Si       3.48238438       2.08928983       0.16656501
Si       0.14515690       3.91598447       0.16656501
Si       2.47467063       4.38902580       5.89649191
Si       1.15287065       1.61624850       5.89649191
Si       0.98247659       2.37245897       7.89010561
Si       2.64506470       3.63281532       7.89010561
6
Lattice="3.8834795059526215 0.22420970239085053 -1.5298142866881077e-17 -0.2740650718809586 5.781977319691499 -3.9451243254188327e-16 -4.89796909537921e-31 6.356618365407063e-16 9.316264884710998" Properties=species:S:1:pos:R:3 unique_starting_index=22 config_type=initial n_minim_iter=7 pbc="T T T"
Si       3.45234360       2.09669737       0.16030422
Si       0.15707084       3.90948965       0.16030422
Si       2.46068506       4.38474258       5.83820244
Si       1.14872938       1.62144444       5.83820244
Si       0.96997953       2.36884033       7.81671949
Si       2.63943490       3.63734669       7.81671949
6
Lattice="3.867842893504594 0.22599997967614077 -1.542029600026413e-17 -0.2692134616181999 5.784679504667762 -3.9469680641768645e-16 -2.7227600610789957e-30 6.350044463401581e-16 9.306630168752502" Properties=species:S:1:pos:R:3 unique_starting_index=22 config_type=initial n_minim_iter=8 pbc="T T T"
Si       3.43973439       2.09915752       0.15830748
Si       0.15889504       3.91152197       0.15830748
Si       2.45261975       4.38673419       5.83106288
Si       1.14600968       1.62394529       5.83106288
Si       0.96398391       2.36996393       7.81156834
Si       2.63464552       3.64071555       7.81156834
6
Lattice="3.647221398394693 0.2359800052211779 -1.610124715882786e-17 -0.22202627647888945 5.799707521800984 -3.9572218913161117e-16 -1.4728946904005539e-29 6.203093193790943e-16 9.09125827223019" Properties=species:S:1:pos:R:3 unique_starting_index=22 config_type=initial n_minim_iter=9 pbc="T T T"
Si       3.25793937       2.11622657       0.12852663
Si       0.16725575       3.91946095       0.12852663
Si       2.32457773       4.38711956       5.68356030
Si       1.10061739       1.64856796       5.68356030
Si       0.87450728       2.37146970       7.66947361
Si       2.55068784       3.66421783       7.66947361
6
Lattice="3.735915846352149 0.2987654433405243 -2.0385185775566443e-17 -0.14802950998962316 5.867759344108966 -4.003654605380603e-16 -1.2842727473343698e-28 6.40690965112357e-16 9.389971832698217" Properties=species:S:1:pos:R:3 unique_starting_index=22 config_type=initial n_minim_iter=10 pbc="T T T"
Si       3.34951201       2.18351530       0.14208308
Si       0.23837433       3.98300949       0.14208308
Si       2.43505308       4.47127384       5.86584021
Si       1.15283326       1.69525095       5.86584021
Si       0.92114469       2.42919589       7.91660398
Si       2.66674165       3.73732890       7.91660398
6
Lattice="3.6545804614103803 0.24509523285691157 -1.672319193994642e-17 -0.21045063074846743 5.805669252193551 -3.961289663502928e-16 3.3263982719610086e-27 6.317231851786935e-16 9.258539978878574" Properties=species:S:1:pos:R:3 unique_starting_index=22 config_type=initial n_minim_iter=11 pbc="T T T"
Si       3.25794067       2.11652751       0.13645150
Si       0.18618916       3.93423697       0.13645150
Si       2.33323624       4.38618831       5.78612646
Si       1.11089359       1.66457617       5.78612646
Si       0.87914474       2.39780450       7.80704708
Si       2.56498509       3.65295999       7.80704708
6
Lattice="3.6656847759533107 0.25706300533516724 -1.753976984542988e-17 -0.19547014685797115 5.791730522875101 -3.95177907039329e-16 4.4282455367661886e-26 6.291609609828273e-16 9.22098799529481" Properties=species:S:1:pos:R:3 unique_starting_index=22 config_type=initial n_minim_iter=12 pbc="T T T"
Si       3.27128129       2.12282591       0.13748376
Si       0.19893334       3.92596762       0.13748376
Si       2.35081462       4.38073948       5.76546267
Si       1.11940001       1.66805405       5.76546267
Si       0.88515612       2.39612516       7.77099222
Si       2.58505851       3.65266837       7.77099222
6
Lattice="3.678195479091892 0.27949876601769835 -1.9070592885600886e-17 -0.16613287733970722 5.768052365716481 -3.9356230750992994e-16 1.0212648713190422e-24 6.268298947190714e-16 9.1868237363806" Properties=species:S:1:pos:R:3 unique_starting_index=22 config_type=initial n_minim_iter=13 pbc="T T T"
Si       3.28869033       2.13564845       0.14003950
Si       0.22337228       3.91190268       0.14003950
Si       2.37861224       4.37172593       5.74804723
Si       1.13345036       1.67582520       5.74804723
Si       0.89371941       2.39602226       7.73518924
Si       2.61834319       3.65152887       7.73518924
6
Lattice="3.6607852303016224 0.27017835543559615 -1.8434681206248856e-17 -0.17647711677317063 5.7541860785712045 -3.926166040668346e-16 -7.164668537216998e-23 6.281677930976391e-16 9.206441769457033" Properties=species:S:1:pos:R:3 unique_starting_index=22 config_type=initial n_minim_iter=14 pbc="T T T"
Si       3.26884980       2.12272360       0.14089183
Si       0.21545832       3.90164083       0.14089183
Si       2.35883824       4.35419614       5.76001063
Si       1.12546987       1.67016829       5.76001063
Si       0.88664951       2.39251042       7.75146538
Si       2.59765861       3.63185401       7.75146538
6
Lattice="3.660816393981054 0.274385433645917 -1.872759437649556e-17 -0.17062652979647058 5.753642359259386 -3.926540967411702e-16 -1.3217987170961263e-20 6.287129975323692e-16 9.216203918987402" Properties=species:S:1:pos:R:3 unique_starting_index=22 config_type=initial n_minim_iter=15 pbc="T T T"
Si       3.27016789       2.12628194       0.14149896
Si       0.22002198       3.90174585       0.14149896
Si       2.36273964       4.35559294       5.76612161
Si       1.12745022       1.67243485       5.76612161
Si       0.88751863       2.39439109       7.75922371
Si       2.60267124       3.63363670       7.75922371
6
Lattice="3.658735841981618 0.27968479034124605 -1.777713316248432e-17 -0.1629370306286197 5.751564877468225 -3.758430897739131e-16 2.935580702618447e-18 6.561465818768889e-16 9.22229431358457" Properties=species:S:1:pos:R:3 unique_starting_index=22 config_type=initial n_minim_iter=16 pbc="T T T"
Si       3.27007809       2.13042943       0.14203484
Si       0.22572072       3.90082023       0.14203484
Si       2.36638519       4.35607937       5.77008404
Si       1.12941362       1.67517029       5.77008404
Si       0.88777320       2.39627166       7.76375693
Si       2.60802561       3.63497800       7.76375693
6
Lattice="3.654587383479779 0.27967233163187566 -9.945359652358235e-17 -0.16232826469657619 5.748535443143489 -1.4030199400932348e-15 -1.792639001410829e-16 -1.0096451107917985e-15 9.222547720743226" Properties=species:S:1:pos:R:3 unique_starting_index=22 config_type=initial n_minim_iter=17 pbc="T T T"
Si       3.26627629       2.12947903       0.14214253
Si       0.22598283       3.89872874       0.14214253
Si       2.36379347       4.35316650       5.77033405
Si       1.12846565       1.67504127       5.77033405
Si       0.88638595       2.39606922       7.76377502
Si       2.60587317       3.63213855       7.76377502
6
Lattice="3.652140787810144 0.2810277284170755 -8.557542498323144e-17 -0.1600726103064391 5.746779820925137 -1.3847994021627626e-15 -1.4867573746537708e-16 -9.762472311884104e-16 9.223932648495836" Properties=species:S:1:pos:R:3 unique_starting_index=22 config_type=initial n_minim_iter=18 pbc="T T T"
Si       3.26450052       2.13014583       0.14232420
Si       0.22756766       3.89766172       0.14232420
Si       2.36353698       4.35205042       5.77129331
Si       1.12853120       1.67575713       5.77129331
Si       0.88579953       2.39653415       7.76468782
Si       2.60626865       3.63127340       7.76468782
6
Lattice="3.6064294666734154 0.3062640626687689 -9.881376848715025e-17 -0.11805043103300511 5.7147673563974895 -1.571195358441721e-15 -1.853250449992377e-16 -1.2622344807959435e-15 9.251759822220157" Properties=species:S:1:pos:R:3 unique_starting_index=22 config_type=initial n_minim_iter=19 pbc="T T T"
Si       3.23095647       2.14257312       0.14601424
Si       0.25742257       3.87845829       0.14601424
Si       2.35834552       4.33059972       5.79060083
Si       1.13003351       1.69043170       5.79060083
Si       0.87448312       2.40629930       7.78295558
Si       2.61389592       3.61473212       7.78295558
6
Lattice="3.6665775170931707 0.28095134048564374 1.3018897272954754e-15 -0.16235778647752275 5.744083539891805 1.525823871337275e-14 2.8446258772395964e-15 2.6111669763303088e-14 9.254150730515951" Properties=species:S:1:pos:R:3 unique_starting_index=22 config_type=initial n_minim_iter=20 pbc="T T T"
Si       3.26927925       2.12877541       0.14640342
Si       0.23494048       3.89625947       0.14640342
Si       2.36605744       4.32948381       5.79241251
Si       1.13816229       1.69555106       5.79241251
Si       0.87773138       2.41169193       7.78430023
Si       2.62648835       3.61334294       7.78430023
6
Lattice="3.6452092159405027 0.26283996118776454 1.0596101876940803e-15 -0.1843396745381201 5.733034402192252 1.4336046227686128e-14 2.15460072388305e-15 2.4671323562571793e-14 9.202726477852917" Properties=species:S:1:pos:R:3 unique_starting_index=22 config_type=initial n_minim_iter=21 pbc="T T T"
Si       3.24377589       2.11023720       0.14346724
Si       0.21709365       3.88563716       0.14346724
Si       2.33507893       4.30686005       5.76063681
Si       1.12579061       1.68901431       5.76063681
Si       0.86291102       2.40454012       7.74275433
Si       2.59795852       3.59133424       7.74275433
6
Lattice="3.657894303650873 0.262164062605351 1.305213128504734e-15 -0.18719486608052138 5.743935477618807 1.6848214173039986e-14 2.6927348924658003e-15 2.873514418957054e-14 9.226421692474124" Properties=species:S:1:pos:R:3 unique_starting_index=22 config_type=initial n_minim_iter=22 pbc="T T T"
Si       3.25354522       2.11274370       0.14432720
Si       0.21715422       3.89335583       0.14432720
Si       2.34118903       4.31310083       5.77494579
Si       1.12951041       1.69299871       5.77494579
Si       0.86489750       2.40922585       7.76272338
Si       2.60580194       3.59687369       7.76272338
6
Lattice="3.6592661692390025 0.2610856224942735 1.4177196371638218e-15 -0.18890285663438167 5.74709208278723 1.86359537459018e-14 2.9374361363869904e-15 3.166948850157862e-14 9.221449512761334" Properties=species:S:1:pos:R:3 unique_starting_index=22 config_type=initial n_minim_iter=23 pbc="T T T"
Si       3.25412874       2.11296216       0.14394255
Si       0.21623458       3.89521554       0.14394255
Si       2.34052787       4.31351462       5.77181831
Si       1.12983545       1.69466308       5.77181831
Si       0.86338879       2.41047579       7.75886219
Si       2.60697452       3.59770191       7.75886219
6
Lattice="3.662818602691127 0.25947403165846655 1.5906605202164932e-15 -0.19168197296510836 5.752226916809358 2.0891866685852075e-14 3.3102430568202174e-15 3.5372292828325044e-14 9.219664803794476" Properties=species:S:1:pos:R:3 unique_starting_index=22 config_type=initial n_minim_iter=24 pbc="T T T"
Si       3.25615362       2.11334319       0.14367636
Si       0.21498301       3.89835776       0.14367636
Si       2.34038938       4.31446555       5.77062857
Si       1.13074725       1.69723539       5.77062857
Si       0.86172564       2.41261555       7.75767155
Si       2.60941099       3.59908540       7.75767155
6
Lattice="3.6784232479565087 0.25136548947122395 1.795899146845917e-15 -0.2053223378023059 5.772406567725358 2.319718026238287e-14 3.6892511887432494e-15 3.92969599918795e-14 9.215383839443755" Properties=species:S:1:pos:R:3 unique_starting_index=22 config_type=initial n_minim_iter=25 pbc="T T T"
Si       3.26437214       2.11339830       0.14295080
Si       0.20872877       3.91037375       0.14295080
Si       2.33863523       4.31594684       5.76780769
Si       1.13446568       1.70782522       5.76780769
Si       0.85416498       2.42121455       7.75486969
Si       2.61893594       3.60255751       7.75486969
6
Lattice="3.6711584086800837 0.24357391735820183 2.021311301271477e-15 -0.2150699785846017 5.768037270277931 2.570361542385159e-14 4.0785126470565024e-15 4.3308168939336037e-14 9.21494386665779" Properties=species:S:1:pos:R:3 unique_starting_index=22 config_type=initial n_minim_iter=26 pbc="T T T"
Si       3.25436400       2.10507911       0.14300388
Si       0.20172443       3.90653207       0.14300388
Si       2.32634151       4.30644230       5.76763030
Si       1.12974692       1.70516888       5.76763030
Si       0.84929773       2.41943441       7.75434155
Si       2.60679071       3.59217677       7.75434155
6
Lattice="3.674145963512867 0.24312838682743787 2.2069316819994727e-15 -0.216140951509792 5.770256436398891 2.8276706309016513e-14 4.487440133084823e-15 4.748288298860025e-14 9.21746363274258" Properties=species:S:1:pos:R:3 unique_starting_index=22 config_type=initial n_minim_iter=27 pbc="T T T"
Si       3.25637485       2.10538405       0.14323144
Si       0.20163016       3.90800077       0.14323144
Si       2.32727317       4.30682625       5.76928434
Si       1.13073185       1.70655857       5.76928434
Si       0.84911327       2.42064151       7.75619655
Si       2.60889175       3.59274331       7.75619655
6
Lattice="3.676532512761017 0.24212053865264588 2.4191368890348802e-15 -0.2179038352492304 5.772339740950056 3.1122563954462704e-14 4.948498824060524e-15 5.2121525835591946e-14 9.216787885999182" Properties=species:S:1:pos:R:3 unique_starting_index=22 config_type=initial n_minim_iter=28 pbc="T T T"
Si       3.25762484       2.10523718       0.14331058
Si       0.20100384       3.90922309       0.14331058
Si       2.32719207       4.30641565       5.76899659
Si       1.13143661       1.70804463       5.76899659
Si       0.84817538       2.42174834       7.75540309
Si       2.61045330       3.59271194       7.75540309
6
Lattice="3.682305188194562 0.23823381474636032 2.667540424452087e-15 -0.2241845060536768 5.777803632520663 3.4171356857368915e-14 5.445511265726533e-15 5.714855277967452e-14 9.21380937393006" Properties=species:S:1:pos:R:3 unique_starting_index=22 config_type=initial n_minim_iter=29 pbc="T T T"
Si       3.25991863       2.10386979       0.14340168
Si       0.19820205       3.91216765       0.14340168
Si       2.32529144       4.30409771       5.76746960
Si       1.13282924       1.71193974       5.76746960
Si       0.84460957       2.42452331       7.75242210
Si       2.61351112       3.59151413       7.75242210
6
Lattice="3.6807275157652497 0.23523947212960505 2.9286782260058722e-15 -0.22811383589134077 5.777205974593365 3.7433847495674464e-14 5.9660595067115835e-15 6.241897451058704e-14 9.213984234102297" Properties=species:S:1:pos:R:3 unique_starting_index=22 config_type=initial n_minim_iter=30 pbc="T T T"
Si       3.25704613       2.10106005       0.14342278
Si       0.19556755       3.91138539       0.14342278
Si       2.32113319       4.30093062       5.76760874
Si       1.13148049       1.71151482       5.76760874
Si       0.84264018       2.42428831       7.75252116
Si       2.60997350       3.58815714       7.75252116
6
Lattice="3.6819005620168084 0.23447838241056762 3.1859060450056325e-15 -0.22935014051988828 5.778246572890105 4.090143892272137e-14 6.524967862393372e-15 6.804626805828762e-14 9.21454726071973" Properties=species:S:1:pos:R:3 unique_starting_index=22 config_type=initial n_minim_iter=31 pbc="T T T"
Si       3.25754470       2.10075902       0.14347386
Si       0.19500573       3.91196594       0.14347386
Si       2.32081170       4.30057265       5.76799068
Si       1.13173872       1.71215231       5.76799068
Si       0.84206784       2.42479026       7.75292305
Si       2.61048258       3.58793469       7.75292305
6
Lattice="3.682536179969996 0.23337950867892968 3.4708122580022816e-15 -0.23097545191207491 5.778959641835826 4.46739356111103e-14 7.135880611101734e-15 7.416714870072695e-14 9.214667931742802" Properties=species:S:1:pos:R:3 unique_starting_index=22 config_type=initial n_minim_iter=32 pbc="T T T"
Si       3.25743890       2.10005703       0.14350367
Si       0.19412183       3.91228212       0.14350367
Si       2.31984234       4.29973741       5.76810239
Si       1.13171839       1.71260174       5.76810239
Si       0.84125063       2.42514093       7.75296047
Si       2.61031010       3.58719822       7.75296047
6
Lattice="3.687542309744883 0.22510791698775462 3.855323820960629e-15 -0.24324316466779128 5.7845005093633235 4.869401888323793e-14 7.793299267821755e-15 8.076068941014052e-14 9.21487105578605" Properties=species:S:1:pos:R:3 unique_starting_index=22 config_type=initial n_minim_iter=33 pbc="T T T"
Si       3.25681561       2.09484489       0.14370575
Si       0.18748353       3.91476354       0.14370575
Si       2.31262640       4.29346638       5.76852476
Si       1.13167274       1.71614205       5.76852476
Si       0.83499264       2.42786060       7.75263725
Si       2.60930651       3.58174783       7.75263725
6
Lattice="3.7112785594536333 0.17795674446825682 4.692316208831018e-15 -0.3124491999811208 5.811047175089191 5.2375402709301804e-14 8.435422466033901e-15 8.732689240038372e-14 9.199290576336308" Properties=species:S:1:pos:R:3 unique_starting_index=22 config_type=initial n_minim_iter=34 pbc="T T T"
Si       3.24948960       2.06344690       0.14423425
Si       0.14933976       3.92555702       0.14423425
Si       2.26863585       4.25449850       5.76084088
Si       1.13019351       1.73450541       5.76084088
Si       0.79760047       2.44109835       7.73668810
Si       2.60122889       3.54790557       7.73668810
6
Lattice="3.720299550166175 0.17483564914933072 4.841283289354298e-15 -0.31815454255295367 5.817159448039072 5.416967285108643e-14 8.658974819996699e-15 9.006972720906625e-14 9.220143984286407" Properties=species:S:1:pos:R:3 unique_starting_index=22 config_type=initial n_minim_iter=35 pbc="T T T"
Si       3.25496964       2.06224432       0.14524672
Si       0.14717537       3.92975077       0.14524672
Si       2.26985743       4.25551907       5.77365986
Si       1.13228758       1.73647603       5.77365986
Si       0.79753930       2.44370206       7.75378048
Si       2.60460571       3.54829304       7.75378048
6
Lattice="3.716976805945847 0.17164367328116037 5.053267515726643e-15 -0.3220955579088727 5.81568287990828 5.63219956929992e-14 9.03850164344152e-15 9.36257461750252e-14 9.212393387755224" Properties=species:S:1:pos:R:3 unique_starting_index=22 config_type=initial n_minim_iter=36 pbc="T T T"
Si       3.25066020       2.05901338       0.14496028
Si       0.14422105       3.92831317       0.14496028
Si       2.26442343       4.25154214       5.76901257
Si       1.13045782       1.73578441       5.76901257
Si       0.79468353       2.44294908       7.74722073
Si       2.60019772       3.54437747       7.74722073
6
Lattice="3.717928083943758 0.17018460859856113 5.219584812371044e-15 -0.3242698136530591 5.816754945939898 5.827870959525037e-14 9.366180704725321e-15 9.682287468663224e-14 9.212009963734046" Properties=species:S:1:pos:R:3 unique_starting_index=22 config_type=initial n_minim_iter=37 pbc="T T T"
Si       3.25061660       2.05801433       0.14501003
Si       0.14304167       3.92892522       0.14501003
Si       2.26311668       4.25060625       5.76885871
Si       1.13054159       1.73633330       5.76885871
Si       0.79351196       2.44343310       7.74675625
Si       2.60014631       3.54350645       7.74675625
6
Lattice="3.7186552699972912 0.1690300552014346 5.387222456777203e-15 -0.3259864383055543 5.8175416133403655 6.02623253499935e-14 9.704346747212908e-15 1.0005645482720765e-13 9.21182134288957" Properties=species:S:1:pos:R:3 unique_starting_index=22 config_type=initial n_minim_iter=38 pbc="T T T"
Si       3.25056883       2.05720844       0.14505008
Si       0.14210000       3.92936323       0.14505008
Si       2.26207861       4.24984702       5.76880250
Si       1.13059022       1.73672464       5.76880250
Si       0.79260116       2.44377908       7.74649272
Si       2.60006767       3.54279259       7.74649272
6
Lattice="3.7451939512186883 0.12580442894571023 6.1629573013761654e-15 -0.39015196796896157 5.845706600560968 6.18863624702565e-14 1.0045211103324995e-14 1.0332654726515437e-13 9.206206534296356" Properties=species:S:1:pos:R:3 unique_starting_index=22 config_type=initial n_minim_iter=39 pbc="T T T"
Si       3.24838935       2.02677669       0.14652895
Si       0.10665263       3.94473434       0.14652895
Si       2.22322645       4.22119933       5.76748914
Si       1.13181554       1.75031170       5.76748914
Si       0.75863803       2.45610010       7.73800092
Si       2.59640395       3.51541093       7.73800092
6
Lattice="3.7421438010664656 0.12159285500302945 6.139550102783135e-15 -0.3955531718028442 5.843946856191218 6.106671155809909e-14 9.83124187392242e-15 1.0192317999898465e-13 9.206691525711966" Properties=species:S:1:pos:R:3 unique_starting_index=22 config_type=initial n_minim_iter=40 pbc="T T T"
Si       3.24379989       2.02244045       0.14659669
Si       0.10279074       3.94309926       0.14659669
Si       2.21703461       4.21665410       5.76784079
Si       1.12955602       1.74888561       5.76784079
Si       0.75603266       2.45515062       7.73830074
Si       2.59055797       3.51038909       7.73830074
6
Lattice="3.7432411292821 0.1199879898977413 6.109427079238488e-15 -0.397952390990135 5.844295721447604 6.036829871880876e-14 9.708760170212968e-15 1.0077398205643335e-13 9.207929541925251" Properties=species:S:1:pos:R:3 unique_starting_index=22 config_type=initial n_minim_iter=41 pbc="T T T"
Si       3.24387643       2.02106549       0.14672540
Si       0.10141231       3.94321822       0.14672540
Si       2.21573682       4.21533321       5.76867404
Si       1.12955192       1.74895050       5.76867404
Si       0.75503872       2.45523893       7.73917465
Si       2.59025002       3.50904478       7.73917465
6
Lattice="3.7446656924229806 0.11758816172346902 6.079043381305932e-15 -0.4015074047857289 5.844736432202912 5.955607206009163e-14 9.56127538507095e-15 9.944858574472494e-14 9.208559975851527" Properties=species:S:1:pos:R:3 unique_starting_index=22 config_type=initial n_minim_iter=42 pbc="T T T"
Si       3.24382281       2.01898943       0.14686940
Si       0.09933548       3.94333516       0.14686940
Si       2.21364590       4.21324678       5.76918281
Si       1.12951239       1.74907781       5.76918281
Si       0.75338561       2.45534651       7.73945676
Si       2.58977268       3.50697809       7.73945676
6
Lattice="3.7458328526375952 0.11538730457250057 6.035687985096174e-15 -0.4047466479325401 5.845146695129333 5.862399933343556e-14 9.393346167480863e-15 9.793917841981296e-14 9.208520843352243" Properties=species:S:1:pos:R:3 unique_starting_index=22 config_type=initial n_minim_iter=43 pbc="T T T"
Si       3.24366286       2.01708170       0.14697634
Si       0.09742335       3.94345230       0.14697634
Si       2.21162772       4.21130044       5.76927656
Si       1.12945848       1.74923356       5.76927656
Si       0.75175596       2.45546418       7.73919803
Si       2.58933025       3.50506982       7.73919803
6
Lattice="3.7733950915973242 0.0620960841404466 6.715998717087418e-15 -0.48307566215957365 5.8569709469747915 5.753583663228795e-14 9.207057181217472e-15 9.626248993798129e-14 9.209053111187046" Properties=species:S:1:pos:R:3 unique_starting_index=22 config_type=initial n_minim_iter=44 pbc="T T T"
Si       3.23921783       1.97127346       0.14958373
Si       0.05110160       3.94779357       0.14958373
Si       2.16249634       4.16571203       5.77240932
Si       1.12782309       1.75335500       5.77240932
Si       0.71175837       2.45951733       7.73424720
Si       2.57856107       3.45954970       7.73424720
6
Lattice="3.755097785340732 -0.007744758524551096 7.692576212169999e-15 -0.5775166178275278 5.895941231084087 5.459236050533946e-14 8.680975395849153e-15 9.26834797510755e-14 9.184519017414052" Properties=species:S:1:pos:R:3 unique_starting_index=22 config_type=initial n_minim_iter=45 pbc="T T T"
Si       3.18918145       1.91134282       0.15166203
Si      -0.01160028       3.97685365       0.15166203
Si       2.07201444       4.12813861       5.76075476
Si       1.10556672       1.76005786       5.76075476
Si       0.65870190       2.47698845       7.70744148
Si       2.51887927       3.41120802       7.70744148
6
Lattice="3.787841122655408 -0.014041088358305451 7.0125278669265245e-15 -0.5912214527316694 5.902165760494527 4.653470378100254e-14 6.977974906238581e-15 7.908288830940599e-14 9.228970686524262" Properties=species:S:1:pos:R:3 unique_starting_index=22 config_type=initial n_minim_iter=46 pbc="T T T"
Si       3.21348824       1.90748506       0.15389744
Si      -0.01686857       3.98063961       0.15389744
Si       2.08288802       4.12705472       5.78812405
Si       1.11373165       1.76106995       5.78812405
Si       0.66116638       2.47807042       7.74375481
Si       2.53545329       3.41005425       7.74375481
6
Lattice="3.7830691950870747 -0.014442458541544698 6.47094339514659e-15 -0.5910598655994643 5.893848649943844 4.0425224651982096e-14 5.809025382623371e-15 6.936554847258132e-14 9.197573985038527" Properties=species:S:1:pos:R:3 unique_starting_index=22 config_type=initial n_minim_iter=47 pbc="T T T"
Si       3.20985369       1.90499065       0.15281163
Si      -0.01784436       3.97441553       0.15281163
Si       2.07947228       4.11987241       5.76927835
Si       1.11253705       1.75953378       5.76927835
Si       0.65776726       2.47483485       7.71712769
Si       2.53424207       3.40457134       7.71712769
6
Lattice="3.7861145382485337 -0.014852193764408068 6.029116666989686e-15 -0.5920897413421153 5.891827042646867 3.548641249086707e-14 4.812464721218711e-15 6.126222911885544e-14 9.202310563481127" Properties=species:S:1:pos:R:3 unique_starting_index=22 config_type=initial n_minim_iter=48 pbc="T T T"
Si       3.21226857       1.90399366       0.15314467
Si      -0.01824377       3.97298118       0.15314467
Si       2.08026688       4.11745770       5.77229577
Si       1.11375792       1.75951715       5.77229577
Si       0.65675741       2.47452187       7.72080118
Si       2.53726739       3.40245297       7.72080118
6
Lattice="3.790177982663363 -0.016331281933013572 5.679312599708268e-15 -0.5947615685434161 5.889227089794545 3.148634317032797e-14 4.011386809368547e-15 5.472747261330139e-14 9.202002296316893" Properties=species:S:1:pos:R:3 unique_starting_index=22 config_type=initial n_minim_iter=49 pbc="T T T"
Si       3.21517131       1.90187453       0.15334428
Si      -0.01975489       3.97102127       0.15334428
Si       2.08042064       4.11358813       5.77232517
Si       1.11499578       1.75930768       5.77232517
Si       0.65493219       2.47375235       7.72011504
Si       2.54048423       3.39914346       7.72011504
6
Lattice="3.799701897677874 -0.020713472281947264 5.418506232938188e-15 -0.602297970667424 5.8862396758587785 2.829214814679067e-14 3.3687917082110592e-15 4.949063486235001e-14 9.202491613951361" Properties=species:S:1:pos:R:3 unique_starting_index=22 config_type=initial n_minim_iter=50 pbc="T T T"
Si       3.22151990       1.89690628       0.15376950
Si      -0.02411597       3.96861992       0.15376950
Si       2.08007912       4.10644576       5.77303969
Si       1.11732481       1.75908044       5.77303969
Si       0.65103999       2.47269400       7.71970091
Si       2.54636393       3.39283220       7.71970091
