10
Lattice="6.9092027703491175 0.00996238577904396 -8.415940530373908e-19 -3.4867110218739668 4.741797264061907 -4.0057356406820116e-16 2.256425621344905e-30 6.673830882623472e-16 7.9001601350426975" Properties=species:S:1:pos:R:3 unique_starting_index=14 config_type=initial n_minim_iter=17 energy=-1628.6483135252683 free_energy=-1628.6483135252683 pbc="T T T"
Si       0.81160852       1.81866950       1.18018871
Si       2.61088322       2.93309015       1.18018871
Si       2.57943557       0.65641379       1.04172700
Si       0.84305617       4.09534586       1.04172700
Si       2.33903406       0.43923922       5.17824203
Si       1.08345768       4.31252043       5.17824203
Si       0.90294156       3.06251785       2.89326813
Si       2.51955018       1.68924180       2.89326813
Si      -0.78479849       3.09003776       4.19659201
Si       4.20729023       1.66172189       4.19659201
