22
Lattice="5.711410799128216 -0.08574457097342615 -0.6213174194660493 -0.7611207279520353 9.448862527328004 -2.2202008042554633 -2.8076336077742385 -6.357583662736971 12.710045475662684" Properties=species:S:1:pos:R:3 unique_starting_index=51 config_type=initial n_minim_iter=1 energy=-3582.9758470702736 free_energy=-3582.9758470702736 pbc="T T T"
Si       3.11564703       7.68703671       0.95625117
Si      -1.59930329       0.12609765       7.00841261
Si       0.72039790       7.67391708      -2.33760907
Si      -0.94378946       4.66437022       1.61562002
Si       0.27043085      -0.20325899       6.05170471
Si       4.50307243       0.19696135       4.00568171
Si       0.12406544       1.52237244       1.25681222
Si       0.54709118       2.11417804      -0.96079657
Si       1.12386378      -2.10212338       5.68028993
Si       2.54139638      -0.51026750       9.19018411
Si      -0.89906872       1.34739327       8.61583989
Si       4.07107728       1.94992008       2.69213357
Si       0.06351626       3.13434413       2.66499497
Si       1.62119334      -3.32275650      12.26280633
Si       0.66986035      -1.59127194      10.36362527
Si       4.30508333       6.29845439       2.16023007
Si       1.65405702       0.26479246       0.47896509
Si       2.98616632       2.76915498       8.44358320
Si       2.11466591      -0.32209730       7.08103181
Si       0.21382789      -1.17956765       4.00214282
Si       3.40215217       1.56638671       0.70601100
Si       1.79319137      -1.70648067       1.98255798
22
Lattice="5.709759068084678 -0.08427710562994928 -0.60702421831245 -0.7648382107084795 9.432579930819442 -2.225391702079177 -2.7797314444812593 -6.356940661786196 12.681606589053251" Properties=species:S:1:pos:R:3 unique_starting_index=51 config_type=initial n_minim_iter=2 stress="-0.010942989494135281 0.000926546919801187 0.0008233581905720265 0.000926546919801187 -0.005746068175998386 -0.001483868916828463 0.0008233581905720265 -0.001483868916828463 -0.007244991893034784" pbc="T T T"
Si       3.11841039       7.67137446       0.95438414
Si      -1.58337602       0.11965194       6.98956361
Si       0.71642822       7.66139309      -2.33780369
Si      -0.93964803       4.65324804       1.60519379
Si       0.28310133      -0.20769004       6.03944061
Si       4.51179561       0.19404064       4.00656758
Si       0.12678745       1.51898959       1.25340694
Si       0.54522121       2.11107403      -0.95932953
Si       1.13623906      -2.10340728       5.67210038
Si       2.56189580      -0.51709702       9.17645476
Si      -0.87972304       1.33695879       8.59386104
Si       4.07799744       1.94426639       2.69350999
Si       0.06966736       3.12515428       2.65651470
Si       1.64850606      -3.32647233      12.24318422
Si       0.69315189      -1.59730402      10.34411835
Si       4.31065256       6.28557386       2.15953397
Si       1.65544618       0.26424163       0.48112449
Si       3.00554763       2.75693226       8.42967758
Si       2.13124814      -0.32748999       7.07073522
Si       0.22282441      -1.18095588       3.99528029
Si       3.40335523       1.56310168       0.71067354
Si       1.79724378      -1.70472173       1.98373103
22
Lattice="5.720846855046871 -0.08466369707410294 -0.6000449356483801 -0.7700460426377392 9.432510324489918 -2.228853211785165 -2.7693808347939215 -6.3594350260944 12.680473702671717" Properties=species:S:1:pos:R:3 unique_starting_index=51 config_type=initial n_minim_iter=3 stress="0.0051225643360292275 0.0001815464732797457 0.005723973114614817 0.0001815464732797457 -0.0009101043614102362 -0.002540325668977228 0.005723973114614817 -0.002540325668977228 0.0013431408685699014" pbc="T T T"
Si       3.12503033       7.66964052       0.95625459
Si      -1.57837123       0.11827689       6.98824107
Si       0.71441015       7.66127185      -2.33890101
Si      -0.94023294       4.65178145       1.60210644
Si       0.29045297      -0.20868721       6.04024390
Si       4.52568502       0.19324991       4.01187876
Si       0.12773776       1.51949993       1.25377921
Si       0.54502520       2.11113802      -0.95924626
Si       1.14559595      -2.10544445       5.67404461
Si       2.57839798      -0.51980399       9.18036471
Si      -0.87117655       1.33460172       8.59245753
Si       4.09042428       1.94284034       2.69799719
Si       0.07256539       3.12337424       2.65589581
Si       1.66755961      -3.32886653      12.24716565
Si       0.70761923      -1.59996886      10.34614072
Si       4.32166576       6.28495932       2.16320701
Si       1.66023638       0.26410096       0.48273081
Si       3.02189316       2.75449058       8.43323001
Si       2.14503074      -0.32954941       7.07380875
Si       0.22855020      -1.18232334       3.99645079
Si       3.41042196       1.56218913       0.71440810
Si       1.80343925      -1.70528239       1.98660544
22
Lattice="5.725332575435917 -0.08657235229721641 -0.600209021669871 -0.77253922676002 9.42582253079228 -2.2169135257004116 -2.77285129143141 -6.345401817169734 12.6507318838096" Properties=species:S:1:pos:R:3 unique_starting_index=51 config_type=initial n_minim_iter=4 stress="0.003215693121334822 -0.006364228813213599 -0.003430584721571068 -0.006364228813213599 -0.004716632609925445 -0.000542523743631751 -0.003430584721571068 -0.000542523743631751 -0.016091857949796104" pbc="T T T"
Si       3.12570082       7.66304740       0.95960016
Si      -1.58259596       0.12527253       6.97604393
Si       0.71321539       7.65482005      -2.32780669
Si      -0.94309030       4.64735288       1.59929769
Si       0.28777558      -0.20144251       6.02862764
Si       4.52707603       0.19794592       4.00176144
Si       0.12423323       1.52336159       1.25439127
Si       0.54532623       2.10923555      -0.95578792
Si       1.14419308      -2.10291280       5.65863344
Si       2.57808997      -0.51366195       9.16177451
Si      -0.87380531       1.34013686       8.57389596
Si       4.09608423       1.94174354       2.69227558
Si       0.07042479       3.12039516       2.65296471
Si       1.66839572      -3.31537723      12.22143457
Si       0.70715873      -1.59160848      10.32506561
Si       4.32349237       6.28618536       2.16250133
Si       1.66454504       0.26494351       0.47985778
Si       3.02209053       2.75933617       8.41900199
Si       2.14661387      -0.32467843       7.05811945
Si       0.22794273      -1.18133331       3.98977029
Si       3.40938265       1.55971605       0.71344327
Si       1.80426369      -1.70331693       1.98155758
22
Lattice="5.711763425664929 -0.07405625382024883 -0.592771938969959 -0.7530389130358833 9.421929044268033 -2.217510145581763 -2.761228486627857 -6.343463724351457 12.671921881823256" Properties=species:S:1:pos:R:3 unique_starting_index=51 config_type=initial n_minim_iter=5 stress="-0.007054757827620686 -0.004972800419348692 0.005149458841142709 -0.004972800419348692 -0.0027340428014764827 0.0006172754743508236 0.005149458841142709 0.0006172754743508236 -0.002663662759297828" pbc="T T T"
Si       3.13904228       7.66744404       0.97148697
Si      -1.56932019       0.12720927       6.99120171
Si       0.72485473       7.65379700      -2.32698260
Si      -0.92857186       4.64281441       1.60123245
Si       0.29508350      -0.19456356       6.04415808
Si       4.52312557       0.21353615       4.01670054
Si       0.12691066       1.52742952       1.25985019
Si       0.54765924       2.10985247      -0.95583017
Si       1.14473307      -2.09993817       5.67081369
Si       2.58560083      -0.50297251       9.18778924
Si      -0.85472317       1.34261650       8.59033569
Si       4.09975322       1.95083408       2.70520759
Si       0.08110550       3.11880170       2.66136464
Si       1.67829025      -3.30176754      12.25191892
Si       0.71955364      -1.58407204      10.35045168
Si       4.33240100       6.30108607       2.17753658
Si       1.66523292       0.27104652       0.48247960
Si       3.03558608       2.77174666       8.44590762
Si       2.15347942      -0.31582171       7.07635241
Si       0.22942085      -1.18084099       4.00057268
Si       3.40317670       1.56630535       0.72128162
Si       1.79910727      -1.69794133       1.98921047
22
Lattice="5.715497861675192 -0.05835785087396439 -0.593958363095721 -0.7276260308076441 9.415426781049248 -2.221409683306496 -2.7832510515755717 -6.353489824571375 12.672643109208316" Properties=species:S:1:pos:R:3 unique_starting_index=51 config_type=initial n_minim_iter=6 stress="-0.002868317022151441 0.0034680375053179483 0.0023449960228935345 0.0034680375053179483 -0.008434264137039607 -0.004157477949671209 0.0023449960228935345 -0.004157477949671209 -0.004563198408730631" pbc="T T T"
Si       3.16196900       7.66928251       0.96676488
Si      -1.57284032       0.12038054       6.99082833
Si       0.74624948       7.65190933      -2.32952340
Si      -0.91740670       4.63615704       1.59783842
Si       0.29340262      -0.19560161       6.04296292
Si       4.52558283       0.22519691       4.01401549
Si       0.12985583       1.52719252       1.25888052
Si       0.55411059       2.11060790      -0.95668848
Si       1.13834454      -2.10004220       5.67029138
Si       2.58378542      -0.50043473       9.18587235
Si      -0.85343788       1.33483236       8.58605426
Si       4.10858565       1.95785597       2.70173852
Si       0.08933511       3.11488532       2.65951883
Si       1.66816781      -3.30117208      12.25075221
Si       0.71396912      -1.58664657      10.34937904
Si       4.35182364       6.30982053       2.17217167
Si       1.66781453       0.27633149       0.48083472
Si       3.04341815       2.77477939       8.44269049
Si       2.15227826      -0.31358846       7.07352203
Si       0.22429559      -1.18257982       4.00061409
Si       3.40792746       1.57387198       0.71979049
Si       1.79486236      -1.69311841       1.98942712
22
Lattice="5.718629409457316 -0.04400021873735582 -0.5853824883712282 -0.7059399440533743 9.428398571727872 -2.2077190208568576 -2.7858422943026304 -6.359241161274375 12.635248089359246" Properties=species:S:1:pos:R:3 unique_starting_index=51 config_type=initial n_minim_iter=7 stress="0.0018226371126237315 0.005156034378840797 0.0020678690028855793 0.005156034378840797 0.008741391521243794 0.0025037877385374403 0.0020678690028855793 0.0025037877385374403 -0.007578350961415557" pbc="T T T"
Si       3.18742332       7.68828785       0.97681396
Si      -1.56816406       0.12664765       6.97682254
Si       0.76408225       7.66333703      -2.31419859
Si      -0.90449293       4.64518263       1.59767995
Si       0.30171223      -0.18512478       6.03072811
Si       4.53392275       0.24697992       4.01057178
Si       0.13332099       1.53229426       1.25639048
Si       0.55943315       2.11492552      -0.95132975
Si       1.14167416      -2.10081615       5.65907029
Si       2.59705118      -0.48414027       9.17114758
Si      -0.83946670       1.34296084       8.56456836
Si       4.12410646       1.97045878       2.69979157
Si       0.10274061       3.12258313       2.65971434
Si       1.67686686      -3.29258421      12.22394573
Si       0.72574547      -1.57756994      10.32883024
Si       4.37503832       6.33970920       2.17721398
Si       1.67201631       0.28489613       0.47892869
Si       3.06505466       2.79947440       8.43419433
Si       2.16111415      -0.30169405       7.05859513
Si       0.22263701      -1.18303535       3.99064166
Si       3.41222293       1.58713319       0.72489662
Si       1.79303671      -1.68948488       1.98603578
22
Lattice="5.722295078372597 -0.04071317631535256 -0.5824806040915959 -0.7031348641787768 9.40428631645057 -2.2137345790450196 -2.7837319826021565 -6.3496778775323515 12.644163465757291" Properties=species:S:1:pos:R:3 unique_starting_index=51 config_type=initial n_minim_iter=8 stress="0.002629567357966213 -0.001993187274479524 -0.0013417993065940946 -0.001993187274479524 0.004097643478352686 -0.0029776635127948376 -0.0013417993065940946 -0.0029776635127948376 -0.00033394428048744943" pbc="T T T"
Si       3.19563221       7.66459128       0.97563280
Si      -1.56921516       0.12563654       6.98314673
Si       0.76635965       7.64198447      -2.31750304
Si      -0.90309525       4.63360319       1.59570406
Si       0.30703279      -0.18439355       6.03460475
Si       4.53889663       0.25271492       4.01493305
Si       0.13192106       1.52850351       1.25465125
Si       0.56095956       2.10998633      -0.95204717
Si       1.14488060      -2.10280005       5.66661569
Si       2.60540450      -0.48406606       9.18097156
Si      -0.83437724       1.33411577       8.56473839
Si       4.13396977       1.96105574       2.69870884
Si       0.10760897       3.11225671       2.66302831
Si       1.68376858      -3.29183091      12.23493091
Si       0.73376623      -1.57850558      10.33883099
Si       4.38356496       6.32913933       2.17536830
Si       1.67581771       0.28767837       0.47638025
Si       3.07440059       2.79312471       8.44228148
Si       2.16478889      -0.30366856       7.06178792
Si       0.22012734      -1.18509757       3.99251676
Si       3.41248502       1.58551254       0.72697141
Si       1.79344415      -1.68509420       1.99002336
22
Lattice="5.727598313175324 -0.03239348343399447 -0.5789386463964264 -0.6899368027083764 9.367726303304027 -2.1947378504271886 -2.788191270390885 -6.306237851502935 12.633815565953721" Properties=species:S:1:pos:R:3 unique_starting_index=51 config_type=initial n_minim_iter=9 stress="0.004743883550460444 0.0016347205322206147 -0.00119056548596771 0.0016347205322206147 7.635713944361333e-05 0.004944141333774072 -0.00119056548596771 0.004944141333774072 0.00500509119898272" pbc="T T T"
Si       3.21221945       7.64316334       0.99437690
Si      -1.56790188       0.13994045       6.98633977
Si       0.77837122       7.61150669      -2.30182843
Si      -0.89635072       4.62232120       1.60576193
Si       0.31131033      -0.16921019       6.03562026
Si       4.54735508       0.27266344       4.02165521
Si       0.13226188       1.52688637       1.25652347
Si       0.56494462       2.10166874      -0.94691743
Si       1.14514002      -2.08397205       5.66661115
Si       2.61500952      -0.45690158       9.18751101
Si      -0.82733981       1.34662908       8.56930363
Si       4.14675235       1.96302511       2.70324882
Si       0.11652764       3.10812835       2.67406446
Si       1.68877819      -3.25506588      12.23528623
Si       0.74113256      -1.55044182      10.34251811
Si       4.40135685       6.32407558       2.19099186
Si       1.68118709       0.29241544       0.47630616
Si       3.08799144       2.81008571       8.45447620
Si       2.16918992      -0.28449381       7.06406142
Si       0.21952438      -1.17587842       3.99176576
Si       3.41658315       1.58892352       0.73310927
Si       1.79301126      -1.67235080       1.98974440
22
Lattice="5.726968050655995 -0.01892363549841312 -0.5762963409496678 -0.6705870278138034 9.369164162806975 -2.2132417159060127 -2.7961178182363717 -6.335635515378106 12.645936963859313" Properties=species:S:1:pos:R:3 unique_starting_index=51 config_type=initial n_minim_iter=10 stress="0.0006177875398050639 -0.000598370346973586 -0.0051275386614839154 -0.000598370346973586 0.0062334455899822104 -0.0002977863647877491 -0.0051275386614839154 -0.0002977863647877491 0.003633963021793409" pbc="T T T"
Si       3.22826093       7.64017362       0.97937157
Si      -1.56586199       0.12681214       6.98519893
Si       0.79626697       7.61362786      -2.31767717
Si      -0.88857087       4.61990059       1.59540824
Si       0.31054107      -0.17786550       6.03369312
Si       4.55267347       0.28309846       4.02958892
Si       0.12840821       1.52610313       1.24909714
Si       0.57051049       2.10313848      -0.94917914
Si       1.13969022      -2.09641782       5.67539851
Si       2.62045283      -0.46665654       9.19394558
Si      -0.82154901       1.32843525       8.56678884
Si       4.15811151       1.95737874       2.69323736
Si       0.12974857       3.10347164       2.67468563
Si       1.68898748      -3.27979308      12.24699774
Si       0.74656618      -1.56997690      10.35176988
Si       4.42062930       6.33506485       2.17819586
Si       1.68863365       0.29845800       0.47281482
Si       3.09672309       2.80671704       8.45069636
Si       2.16487781      -0.29484634       7.06377527
Si       0.21504899      -1.19091118       3.99374570
Si       3.41465473       1.59700474       0.73265966
Si       1.78842652      -1.67210104       1.99670138
22
Lattice="5.733228994757642 -0.0059975791375633195 -0.5600578682550457 -0.6573405429747767 9.347228855344323 -2.2193280976800045 -2.7784465704754617 -6.333794190130981 12.636497452350042" Properties=species:S:1:pos:R:3 unique_starting_index=51 config_type=initial n_minim_iter=11 stress="-0.0020525106635872897 -0.002762696324506955 -0.0011131960831106662 -0.002762696324506955 0.008712893224961608 -0.0005230247417667354 -0.0011131960831106662 -0.0005230247417667354 0.004441828371825238" pbc="T T T"
Si       3.24989052       7.62339552       0.97803724
Si      -1.55086939       0.12253069       6.97183017
Si       0.81195834       7.60301889      -2.31176741
Si      -0.87721540       4.60438978       1.59015610
Si       0.32904653      -0.17769548       6.03452149
Si       4.57178873       0.30005213       4.04630806
Si       0.12406785       1.52507581       1.23899479
Si       0.57599629       2.09597369      -0.94464375
Si       1.15066957      -2.09554200       5.68255531
Si       2.65042291      -0.46470919       9.19997088
Si      -0.79342547       1.32220037       8.55930242
Si       4.18835315       1.95062322       2.68983258
Si       0.14677607       3.09906608       2.67750862
Si       1.72345222      -3.28381767      12.25616311
Si       0.77963073      -1.57264138      10.35813781
Si       4.45354590       6.33491947       2.18438107
Si       1.69839795       0.30461001       0.47188361
Si       3.12889181       2.81261824       8.45421590
Si       2.17412507      -0.29497740       7.06437102
Si       0.21617229      -1.20386130       3.99509124
Si       3.41701774       1.60490965       0.73917139
Si       1.78943100      -1.66545852       2.00032203
22
Lattice="5.760874097599971 0.019400780909035135 -0.541580422518695 -0.6278868828725082 9.269883063405683 -2.2242640251003114 -2.7782241685252584 -6.296259361580146 12.640186652423536" Properties=species:S:1:pos:R:3 unique_starting_index=51 config_type=initial n_minim_iter=12 stress="-0.00017977223687557734 -0.003745177060154168 0.0006941145922547996 -0.003745177060154168 -0.0004260907123113154 0.007330740263290681 0.0006941145922547996 0.007330740263290681 0.00737644264307686" pbc="T T T"
Si       3.29724067       7.56923363       0.97609728
Si      -1.54474981       0.12069628       6.96325856
Si       0.84444182       7.55819608      -2.31194230
Si      -0.85924277       4.55928920       1.59192134
Si       0.34468345      -0.16316851       6.04180360
Si       4.61603580       0.32975835       4.07893822
Si       0.11467050       1.52070945       1.22124742
Si       0.59083581       2.07157751      -0.93550204
Si       1.16876103      -2.08587077       5.70097132
Si       2.69799129      -0.44707091       9.22180874
Si      -0.75954211       1.31350379       8.56267324
Si       4.25196794       1.93562340       2.68177795
Si       0.17499485       3.08222142       2.68586552
Si       1.77345738      -3.26876175      12.28653295
Si       0.82399659      -1.56226601      10.38619628
Si       4.52437710       6.31431452       2.19860742
Si       1.71445269       0.31818037       0.46818580
Si       3.18419158       2.81812418       8.47927914
Si       2.19087676      -0.28635994       7.07749377
Si       0.20648962      -1.22119321       4.00689194
Si       3.42617293       1.61298777       0.74741971
Si       1.79249822      -1.64415149       2.01096121
22
Lattice="5.786893768476439 0.044639112769994986 -0.5202197411190055 -0.599996486368422 9.208386904911249 -2.235012060791001 -2.771853330377393 -6.278301499135871 12.635132812684963" Properties=species:S:1:pos:R:3 unique_starting_index=51 config_type=initial n_minim_iter=13 stress="0.004709907489697271 -0.010450092269211632 0.007938265762729817 -0.010450092269211632 -0.006951834476310605 0.013073557434888985 0.007938265762729817 0.013073557434888985 0.012769844204523314" pbc="T T T"
Si       3.34262523       7.52562420       0.96798585
Si      -1.53687375       0.11397140       6.94839868
Si       0.87446140       7.52191955      -2.31606644
Si      -0.84097217       4.52092622       1.58801174
Si       0.36516559      -0.15577303       6.04352356
Si       4.65968973       0.35527787       4.10788797
Si       0.10523528       1.51872984       1.20034554
Si       0.60508666       2.05042164      -0.92660507
Si       1.18831621      -2.08203926       5.71482105
Si       2.74953726      -0.43671631       9.23599467
Si      -0.72311706       1.29904975       8.55516208
Si       4.31541838       1.92183586       2.67098189
Si       0.20425548       3.06616306       2.68837557
Si       1.83021970      -3.26928788      12.30673686
Si       0.87245548      -1.56274238      10.40532183
Si       4.59450562       6.30234057       2.20729727
Si       1.72992979       0.33471389       0.46678855
Si       3.24074285       2.82121125       8.49262173
Si       2.21087831      -0.28407722       7.08449880
Si       0.19897214      -1.24447933       4.01787123
Si       3.43368655       1.62100895       0.75579038
Si       1.79592363      -1.62713608       2.02093092
22
Lattice="5.797646495557796 0.06654144987258725 -0.5110197515537032 -0.5705492332561466 9.177298249047256 -2.247068992545914 -2.780567564812206 -6.2819036357694635 12.64002831959548" Properties=species:S:1:pos:R:3 unique_starting_index=51 config_type=initial n_minim_iter=14 stress="0.0061149699881843595 -0.007078970681375494 0.00867731638674351 -0.007078970681375494 -0.007681132255013555 0.016346364506143823 0.00867731638674351 0.016346364506143823 0.018219828944696866" pbc="T T T"
Si       3.37379001       7.50668641       0.95490681
Si      -1.53593477       0.10474876       6.94050871
Si       0.90112056       7.50737653      -2.32510444
Si      -0.82465279       4.49790285       1.58541599
Si       0.37217006      -0.15396943       6.04605873
Si       4.67907646       0.37363952       4.12407708
Si       0.09582617       1.52241707       1.18323853
Si       0.61692421       2.03748690      -0.92120794
Si       1.19365091      -2.08354330       5.72532544
Si       2.77339800      -0.43211746       9.24535891
Si      -0.70423955       1.28555109       8.55120843
Si       4.35459180       1.91743513       2.65797983
Si       0.22243898       3.05619472       2.68732246
Si       1.85530435      -3.28305214      12.32535057
Si       0.89418775      -1.57003464      10.42110370
Si       4.63738591       6.29880471       2.20950341
Si       1.73728362       0.34759463       0.46490873
Si       3.26921880       2.82467350       8.49871476
Si       2.21644062      -0.28495467       7.08997874
Si       0.19149816      -1.26015752       4.02534457
Si       3.43562913       1.63169828       0.75622668
Si       1.79256557      -1.61689938       2.02729542
22
Lattice="5.82174559522805 0.06098719261076337 -0.5070743016320831 -0.5888236859118936 9.210702734230294 -2.291577210002794 -2.779090468223458 -6.359717097553978 12.635700944228958" Properties=species:S:1:pos:R:3 unique_starting_index=51 config_type=initial n_minim_iter=15 stress="0.006725619927486582 0.003202607435148463 0.00920917501497113 0.003202607435148463 -0.017163533353337333 0.011813131905111957 0.00920917501497113 0.011813131905111957 0.017740679616476917" pbc="T T T"
Si       3.37344399       7.51748986       0.89781620
Si      -1.55571822       0.07625002       6.90740812
Si       0.88471574       7.54856305      -2.37260399
Si      -0.83420315       4.49025490       1.56550013
Si       0.37222584      -0.18370883       6.02719046
Si       4.70068412       0.34060822       4.12406663
Si       0.08844344       1.53191021       1.15231925
Si       0.62397557       2.01829423      -0.91222688
Si       1.20661239      -2.11366633       5.71913699
Si       2.79786856      -0.47956854       9.22198250
Si      -0.70719108       1.25047991       8.51392109
Si       4.39786870       1.89103579       2.61581354
Si       0.21602969       3.04886848       2.64605583
Si       1.88951253      -3.37840850      12.31349082
Si       0.91521204      -1.63777748      10.41477127
Si       4.64395992       6.28534892       2.18535018
Si       1.72774789       0.36304269       0.47738348
Si       3.27075708       2.79143488       8.45448852
Si       2.22670635      -0.32722209       7.08155010
Si       0.18795818      -1.29983288       4.03640796
Si       3.44066107       1.63587951       0.73873427
Si       1.79794963      -1.63181913       2.03162415
22
Lattice="5.825491005145463 0.03004013594717536 -0.5015368952741766 -0.6455455095534288 9.322670987758793 -2.3334285374041572 -2.739686578276934 -6.47937728272321 12.601416639225006" Properties=species:S:1:pos:R:3 unique_starting_index=51 config_type=initial n_minim_iter=16 stress="0.005869928812113061 0.01003506963472903 0.009750661424410974 0.01003506963472903 -0.009236994757587881 -0.0003280059164122761 0.009750661424410974 -0.0003280059164122761 0.012846099489514633" pbc="T T T"
Si       3.32562073       7.58198324       0.83999363
Si      -1.55700916       0.05274310       6.85867637
Si       0.82190637       7.64614573      -2.41990513
Si      -0.85733836       4.53084617       1.54586688
Si       0.37110504      -0.23320327       5.99832451
Si       4.70571111       0.27468149       4.10257600
Si       0.08181766       1.54923416       1.13195052
Si       0.61762347       2.00665998      -0.89870884
Si       1.22225535      -2.14938381       5.69690939
Si       2.81431114      -0.54420904       9.17266221
Si      -0.71427373       1.22419559       8.44734318
Si       4.41385271       1.86489214       2.58998681
Si       0.19616450       3.06262526       2.59098529
Si       1.92196282      -3.49704217      12.24687317
Si       0.93556307      -1.72312315      10.37664868
Si       4.59887713       6.29555416       2.16023810
Si       1.71187729       0.36651108       0.48522560
Si       3.25509412       2.75862142       8.39906718
Si       2.23959704      -0.38055434       7.05547837
Si       0.19735110      -1.33183722       4.03980357
Si       3.42502130       1.62867235       0.71380806
Si       1.80570552      -1.66717450       2.02783764
22
Lattice="5.830799936807535 0.002494742864124925 -0.49373017638629424 -0.6928618409060644 9.370665151670737 -2.3216992523352022 -2.703283932202795 -6.497790848046661 12.521021293070318" Properties=species:S:1:pos:R:3 unique_starting_index=51 config_type=initial n_minim_iter=17 stress="0.0030715381953741283 0.01257790175125116 0.00600969501332544 0.01257790175125116 -0.01461609987755694 -0.00024460837116826534 0.00600969501332544 -0.00024460837116826534 -0.009724707597758241" pbc="T T T"
Si       3.29220845       7.61054042       0.82996637
Si      -1.55506794       0.06718424       6.81264485
Si       0.77336283       7.69445701      -2.41576829
Si      -0.88093640       4.55091496       1.53607586
Si       0.37333913      -0.24611669       5.96544083
Si       4.71399176       0.23929018       4.07597106
Si       0.06602423       1.56331287       1.10966919
Si       0.61232410       1.97903174      -0.87313452
Si       1.24160658      -2.15129364       5.66707247
Si       2.83012159      -0.55791962       9.11568901
Si      -0.72015720       1.23264866       8.37780977
Si       4.42292111       1.83955988       2.57424885
Si       0.19185328       3.08093724       2.56420849
Si       1.95823692      -3.51825412      12.16278915
Si       0.95752615      -1.74028145      10.31972504
Si       4.56527279       6.29955592       2.16536413
Si       1.70907783       0.36271397       0.49940378
Si       3.24314414       2.76009647       8.34490911
Si       2.25539841      -0.39009948       7.01560599
Si       0.19858158      -1.33072737       4.02288496
Si       3.42126944       1.62167542       0.70815883
Si       1.81208587      -1.68006168       2.01158779
22
Lattice="5.794368901697553 -0.02347347991224863 -0.5092749128202583 -0.7255216304966082 9.424661889202007 -2.334629981474946 -2.68678745764665 -6.530199216281319 12.56478498498455" Properties=species:S:1:pos:R:3 unique_starting_index=51 config_type=initial n_minim_iter=18 stress="0.00852385351966577 0.003655988652720638 0.0047707542681662074 0.003655988652720638 -0.0058597359479179096 -0.012953257420404745 0.0047707542681662074 -0.012953257420404745 -0.01475326954856476" pbc="T T T"
Si       3.22521147       7.64139374       0.81564630
Si      -1.56494851       0.07188305       6.83455787
Si       0.73431046       7.75055201      -2.43401493
Si      -0.90594587       4.57342047       1.53034599
Si       0.35019848      -0.26396515       5.98858862
Si       4.66548721       0.20789759       4.06362922
Si       0.04629105       1.56118681       1.11336383
Si       0.61108938       1.94910594      -0.88175652
Si       1.23427990      -2.16370553       5.68418259
Si       2.79310973      -0.58374836       9.13129695
Si      -0.74941810       1.23360526       8.38613959
Si       4.38218198       1.80680570       2.57372975
Si       0.18930140       3.10104168       2.56221429
Si       1.93679434      -3.54126390      12.18400180
Si       0.93771995      -1.76519007      10.34825116
Si       4.49430015       6.31925019       2.17046569
Si       1.67481858       0.34746791       0.51159024
Si       3.18401839       2.76345530       8.35497281
Si       2.24184198      -0.40185541       7.02329474
Si       0.20518616      -1.33659572       4.04234043
Si       3.41031238       1.62216591       0.70069272
Si       1.79672805      -1.69334849       2.00077313
22
Lattice="5.777923584992423 -0.025935800514351577 -0.5151830296241066 -0.7244097723043675 9.420341721573912 -2.3276242844904256 -2.6877414698157778 -6.515787168859601 12.575377139194035" Properties=species:S:1:pos:R:3 unique_starting_index=51 config_type=initial n_minim_iter=19 stress="0.005624730739592333 0.00520220814862694 -0.0015341770079937173 0.00520220814862694 -0.017010875955407786 -0.006992578060253104 -0.0015341770079937173 -0.006992578060253104 -0.013955433379296993" pbc="T T T"
Si       3.21149716       7.63944265       0.82259604
Si      -1.57110822       0.07943489       6.84165157
Si       0.73392677       7.75249284      -2.42956963
Si      -0.91122767       4.58121779       1.53691622
Si       0.34344749      -0.26221102       5.99892869
Si       4.64572793       0.21016128       4.05963340
Si       0.03100603       1.56564661       1.12316173
Si       0.61411809       1.93753874      -0.88767586
Si       1.23000779      -2.15895836       5.69367222
Si       2.77657176      -0.57876273       9.13883658
Si      -0.75884483       1.24319927       8.39724768
Si       4.37006728       1.79380462       2.58074057
Si       0.19688352       3.10294328       2.56437745
Si       1.92672956      -3.52770889      12.19223777
Si       0.92918472      -1.75649339      10.36005197
Si       4.47728959       6.32413497       2.17497766
Si       1.66761108       0.34430955       0.51440338
Si       3.16661794       2.77075749       8.36545330
Si       2.23133135      -0.39340149       7.02408870
Si       0.20123132      -1.33316689       4.04664613
Si       3.40341007       1.62279629       0.69711949
Si       1.78597771      -1.68949286       1.99088906
22
Lattice="5.762439485078925 -0.029462540971602773 -0.5176461128812895 -0.725777456734342 9.43039386322458 -2.3157196565246734 -2.682107523143871 -6.506877949488232 12.570266289510139" Properties=species:S:1:pos:R:3 unique_starting_index=51 config_type=initial n_minim_iter=20 stress="0.008897889093235613 0.0018471488678656227 -0.0026200410304829773 0.0018471488678656227 0.004153890729420908 0.0011817139142562224 -0.0026200410304829773 0.0011817139142562224 -0.00676588011099902" pbc="T T T"
Si       3.19238993       7.64674235       0.83337175
Si      -1.57714490       0.08840172       6.83691635
Si       0.72795673       7.75824978      -2.42162465
Si      -0.91886458       4.59735586       1.54216041
Si       0.34467899      -0.25925688       6.00211972
Si       4.63003895       0.21541636       4.05574014
Si       0.01963871       1.56587024       1.12419194
Si       0.61298687       1.94219432      -0.88598061
Si       1.23033217      -2.16022544       5.70005320
Si       2.76528230      -0.57079653       9.13851348
Si      -0.75920681       1.26173880       8.40149958
Si       4.36667780       1.78854380       2.58383339
Si       0.19822310       3.11078292       2.57126510
Si       1.92429144      -3.50616285      12.19420017
Si       0.92633647      -1.74621379      10.36134539
Si       4.46430715       6.33533515       2.17530263
Si       1.66152610       0.34973123       0.51542095
Si       3.15748841       2.77328812       8.37142414
Si       2.21570941      -0.38418983       7.01728526
Si       0.20517426      -1.32884309       4.04473252
Si       3.39545638       1.62218294       0.69805687
Si       1.77744663      -1.68874863       1.98524218
22
Lattice="5.758851251094135 -0.031160373988327175 -0.5174760571736353 -0.7283361542603634 9.426985371893037 -2.316737564134192 -2.678075678143643 -6.50493274743949 12.569993892519134" Properties=species:S:1:pos:R:3 unique_starting_index=51 config_type=initial n_minim_iter=21 stress="0.0005140816280022175 0.002927723505648085 -0.006420998056139017 0.002927723505648085 -0.0031045680069319405 0.011687776100353231 -0.006420998056139017 0.011687776100353231 -0.007429454399307253" pbc="T T T"
Si       3.18577429       7.64103878       0.83342336
Si      -1.58002288       0.08958234       6.82621486
Si       0.72283618       7.75349087      -2.42227652
Si      -0.92012838       4.60065589       1.55226644
Si       0.34244541      -0.26302607       6.00303964
Si       4.62649747       0.21262082       4.05639902
Si       0.01086301       1.56658114       1.12256482
Si       0.61285556       1.93614933      -0.87966227
Si       1.23411728      -2.16656017       5.70613295
Si       2.76403155      -0.57381028       9.13665700
Si      -0.75596435       1.26667032       8.39800829
Si       4.37633487       1.77694069       2.57532221
Si       0.19481705       3.11274701       2.56281835
Si       1.92702176      -3.50251032      12.19293662
Si       0.93130741      -1.74825300      10.36545321
Si       4.46365661       6.33454724       2.16984392
Si       1.66016410       0.35508714       0.51664560
Si       3.15529743       2.76946681       8.36949629
Si       2.20661442      -0.38501365       7.01547275
Si       0.20464945      -1.33262304       4.04769416
Si       3.39655408       1.62070359       0.69957279
Si       1.77273598      -1.68771815       1.98639427
