10
Lattice="5.471110509793828 -0.8066169950635762 -0.04625190760315582 -0.444244506034682 5.379542602553347 -0.27939797945952977 0.17317328176105135 2.379893120853388 6.8223443691556716" Properties=species:S:1:pos:R:3 unique_starting_index=87 config_type=initial n_minim_iter=1 energy=-1633.627396861489 free_energy=-1633.627396861489 pbc="T T T"
Si       1.66172816       5.52296935       4.44871263
Si       1.70064402       2.14271628       4.07005208
Si       2.89423472       2.70159004       1.54808754
Si       1.43122472       4.17935678       1.07187368
Si       1.62664512       1.65993755       6.14998664
Si       1.76306630       1.31642305      -1.32447416
Si       4.74844750       5.71575817       6.62094523
Si       2.14824167       3.96595417       3.08967907
Si       2.64794421       5.53809481       6.33747109
Si       5.79018176       3.08277484       4.08713499
10
Lattice="5.475304816888428 -0.8127216844181576 -0.0518218844252121 -0.4487842050057647 5.389657543126155 -0.27612424746070596 0.16453028049218335 2.3866292074430375 6.802501063974261" Properties=species:S:1:pos:R:3 unique_starting_index=87 config_type=initial n_minim_iter=2 stress="-0.009785008296694023 0.008574427530135034 -0.014043151659311002 0.008574427530135034 0.0008900505093470305 0.001898414304349123 -0.014043151659311002 0.001898414304349123 -0.029834473778228624" pbc="T T T"
Si       1.65346668       5.53331775       4.43588862
Si       1.69675420       2.14637800       4.05767674
Si       2.89202414       2.70516023       1.54148612
Si       1.42733110       4.18623437       1.06931672
Si       1.62033400       1.66461968       6.12997542
Si       1.76402107       1.31594010      -1.32226196
Si       4.74004904       5.72481923       6.59848675
Si       2.14329859       3.97280349       3.07847225
Si       2.63901012       5.54746913       6.31833542
Si       5.78691789       3.08549916       4.07048668
10
Lattice="5.482120849512711 -0.8198128203276637 -0.050060355422999664 -0.4554491442390385 5.39608587466026 -0.27574804969435174 0.16433381568202904 2.3897845392074517 6.8037552489733395" Properties=species:S:1:pos:R:3 unique_starting_index=87 config_type=initial n_minim_iter=3 stress="0.009980668855416784 0.003080660087304186 -0.009151047035219748 0.003080660087304186 0.02601154945789801 0.0014301311316726713 -0.009151047035219748 0.0014301311316726713 -0.005148338990352368" pbc="T T T"
Si       1.65014240       5.53789155       4.43759304
Si       1.69864911       2.14704854       4.05937311
Si       2.89249873       2.70543189       1.54354589
Si       1.42425499       4.18933860       1.07108313
Si       1.62232747       1.66599408       6.13102657
Si       1.76390638       1.31442078      -1.32197677
Si       4.74102091       5.72667596       6.60163088
Si       2.14221378       3.97520532       3.07910213
Si       2.63799715       5.55042357       6.32083928
Si       5.79043782       3.08336192       4.07335727
10
Lattice="5.4843370513923055 -0.828609618278141 -0.04546892693625142 -0.46523151972865234 5.391188601585502 -0.27531807755737886 0.1659603412294383 2.3877350182280335 6.798986260007854" Properties=species:S:1:pos:R:3 unique_starting_index=87 config_type=initial n_minim_iter=4 stress="0.0038969895863536644 -0.008898577717715015 -0.0026486114100640655 -0.008898577717715015 -0.0113990359817876 0.0024072875346904756 -0.0026486114100640655 0.0024072875346904756 -0.020918205626180547" pbc="T T T"
Si       1.64374528       5.52910873       4.43613784
Si       1.70097658       2.14224710       4.05822272
Si       2.88919713       2.69853011       1.54648144
Si       1.41763111       4.18237223       1.07309070
Si       1.62496590       1.66307791       6.12709584
Si       1.76032780       1.30851586      -1.32022589
Si       4.73726024       5.71346592       6.60120781
Si       2.13806481       3.96760927       3.07768481
Si       2.63451111       5.53918672       6.31913674
Si       5.78833368       3.07151963       4.07572683
10
Lattice="5.475064845870944 -0.8295319075437422 -0.04185982819268521 -0.46520905851154803 5.3937064169937186 -0.27655655548361163 0.1697742279162158 2.3876871043289016 6.800780290824376" Properties=species:S:1:pos:R:3 unique_starting_index=87 config_type=initial n_minim_iter=5 stress="-0.020357254487697825 -0.008636626162144128 -0.002473408100180974 -0.008636626162144128 0.00022584180321639458 -0.009216451169902396 -0.002473408100180974 -0.009216451169902396 -0.009829672147544011" pbc="T T T"
Si       1.64220930       5.52969823       4.43770351
Si       1.70486253       2.14056295       4.05948234
Si       2.88445953       2.70076090       1.55115758
Si       1.41486418       4.18332601       1.07490605
Si       1.62691906       1.66319190       6.12918108
Si       1.75491243       1.30839955      -1.32166712
Si       4.73199646       5.71516363       6.60530369
Si       2.13581018       3.97014679       3.07715538
Si       2.63400897       5.53853485       6.32222596
Si       5.77928773       3.07343801       4.08112136
10
Lattice="5.478627262597219 -0.8224832155833349 -0.03648271008978739 -0.45926105128268874 5.390265225468452 -0.26608931740337743 0.18163733268460858 2.400848230640696 6.805358884792681" Properties=species:S:1:pos:R:3 unique_starting_index=87 config_type=initial n_minim_iter=6 stress="0.0007559775779712054 0.0008218863371338592 -0.0016372705847249522 0.0008218863371338592 -0.010352389504464635 0.010840367032095745 -0.0016372705847249522 0.010840367032095745 -0.0016747529333670957" pbc="T T T"
Si       1.65438247       5.53644627       4.45135598
Si       1.72477539       2.14676592       4.06249648
Si       2.89120481       2.70964427       1.56576567
Si       1.42109226       4.18414627       1.08682956
Si       1.64163462       1.67747837       6.13371943
Si       1.75327156       1.30654812      -1.32073502
Si       4.75043096       5.73365986       6.62305086
Si       2.14568677       3.98011089       3.08454817
Si       2.65065703       5.54828754       6.33750591
Si       5.78937229       3.09143820       4.09657631
10
Lattice="5.481714265300917 -0.8210797408847301 -0.02417398348075522 -0.4576669091784041 5.398097001779961 -0.27333552341108025 0.19684009588918921 2.3957764526348706 6.792773502023627" Properties=species:S:1:pos:R:3 unique_starting_index=87 config_type=initial n_minim_iter=7 stress="0.02389848556346795 0.009283172342225478 0.00741673879153849 0.009283172342225478 -0.0060381187537611744 -0.020293784494406057 0.00741673879153849 -0.020293784494406057 -0.0040456102172516635" pbc="T T T"
Si       1.66542277       5.53825288       4.44218042
Si       1.75029675       2.14446821       4.05195017
Si       2.89681463       2.71592129       1.57112319
Si       1.42323924       4.18782210       1.08255245
Si       1.66044964       1.67087891       6.12733972
Si       1.74903320       1.30835736      -1.32209702
Si       4.76924010       5.73803514       6.61631136
Si       2.15313970       3.98729435       3.07937928
Si       2.66543413       5.54344667       6.32810081
Si       5.79703198       3.09803869       4.10089629
10
Lattice="5.467700074692601 -0.8310002632146141 -0.01537375438748898 -0.46392178177015886 5.416696240353587 -0.26517693119129115 0.20589442212501569 2.414963843117504 6.794045168469203" Properties=species:S:1:pos:R:3 unique_starting_index=87 config_type=initial n_minim_iter=8 stress="0.0017431219447974352 -0.0018923924098924502 0.011477670310074484 -0.0018923924098924502 0.01744374428520112 0.001218260064542951 0.011477670310074484 0.001218260064542951 0.015948775898357744" pbc="T T T"
Si       1.65975941       5.56190247       4.45435954
Si       1.77217536       2.15580874       4.04776276
Si       2.88758151       2.72778546       1.58622054
Si       1.41142868       4.19992821       1.09067557
Si       1.67073774       1.68135757       6.13260554
Si       1.73561637       1.30525940      -1.32286698
Si       4.76003825       5.76593335       6.63174732
Si       2.14453365       4.00820682       3.08985068
Si       2.65987530       5.56034762       6.34126175
Si       5.77646293       3.11438514       4.11820914
10
Lattice="5.460268377776343 -0.8336048442151056 -0.02376089610714838 -0.465607556872739 5.41556386034925 -0.26394566188850227 0.19426592245604637 2.4156271350763188 6.805930851546604" Properties=species:S:1:pos:R:3 unique_starting_index=87 config_type=initial n_minim_iter=9 stress="0.012455414114394506 -0.0018741182822397326 -0.007197696208826113 -0.0018741182822397326 0.013327012556308509 -0.00520028009602131 -0.007197696208826113 -0.00520028009602131 0.02997763923413255" pbc="T T T"
Si       1.64670709       5.56376126       4.46396386
Si       1.78054625       2.15383876       4.04780069
Si       2.87935909       2.72761206       1.58742003
Si       1.40210384       4.19591550       1.09174370
Si       1.66375687       1.67944429       6.13784276
Si       1.73207357       1.30070445      -1.33156488
Si       4.73728527       5.76585592       6.63755001
Si       2.13212935       4.01266343       3.09467119
Si       2.64129669       5.55018722       6.35056141
Si       5.75269664       3.11580012       4.11926959
10
Lattice="5.445952117204254 -0.831065157627108 -0.016160432768418564 -0.46184881597018057 5.418540978314208 -0.25822968780444505 0.20585932065902512 2.4254079470771157 6.808556180908714" Properties=species:S:1:pos:R:3 unique_starting_index=87 config_type=initial n_minim_iter=10 stress="0.0024145754834136975 -0.00012053870519777443 0.006111467043818603 -0.00012053870519777443 0.022238457046734366 -0.0037430237426138756 0.006111467043818603 -0.0037430237426138756 0.033226507976195876" pbc="T T T"
Si       1.65222295       5.57622922       4.47545588
Si       1.79774730       2.15874985       4.05083266
Si       2.87561888       2.73388082       1.59537601
Si       1.40013052       4.19811742       1.09929170
Si       1.67303864       1.68800262       6.13817099
Si       1.72555302       1.29868413      -1.32910283
Si       4.73841846       5.78252488       6.65128125
Si       2.13070769       4.02656627       3.10463594
Si       2.64463332       5.55578289       6.36284986
Si       5.74028660       3.12896789       4.13183072
10
Lattice="5.434516068894166 -0.8260786753709933 -0.021232636896839546 -0.45557036119322775 5.419541474763634 -0.2534613758306777 0.2024370600547962 2.4323027816319622 6.817904763607643" Properties=species:S:1:pos:R:3 unique_starting_index=87 config_type=initial n_minim_iter=11 stress="-0.0018105046058850016 4.7122994282764575e-05 0.0012758265087614016 4.7122994282764575e-05 0.0199213451284152 -0.0010426011882686264 0.0012758265087614016 -0.0010426011882686264 0.03167367062952575" pbc="T T T"
Si       1.65160114       5.58208204       4.48543095
Si       1.80353514       2.16651472       4.05636986
Si       2.87051487       2.73908647       1.59855841
Si       1.39847516       4.19909461       1.10240521
Si       1.66636014       1.69704018       6.14338965
Si       1.72391002       1.29818124      -1.33299945
Si       4.73172005       5.79686340       6.65931311
Si       2.12696000       4.03663639       3.10961484
Si       2.63490022       5.56002427       6.37305655
Si       5.72484841       3.14029300       4.13523338
10
Lattice="5.4197496540037005 -0.8141342056031458 -0.021870401542368818 -0.441919731028518 5.423887725674108 -0.24947292440130212 0.20758784569999628 2.4403450985491455 6.8216902313435055" Properties=species:S:1:pos:R:3 unique_starting_index=87 config_type=initial n_minim_iter=12 stress="-0.0022137593245062114 0.005003184439188189 0.0027269600280256183 0.005003184439188189 0.010716802077473608 -0.001525512661220601 0.0027269600280256183 -0.001525512661220601 0.02119941678837932" pbc="T T T"
Si       1.66107203       5.59377214       4.49140256
Si       1.81789021       2.18069634       4.06007184
Si       2.86799314       2.75060687       1.60370099
Si       1.40139674       4.20409319       1.10255384
Si       1.66705007       1.70963751       6.14473666
Si       1.72443439       1.30080965      -1.33220056
Si       4.73279168       5.82110960       6.66500813
Si       2.13118414       4.05016447       3.11141215
Si       2.63823029       5.57017727       6.38266322
Si       5.71246506       3.16121968       4.13855880
10
Lattice="5.413611099328394 -0.8130888804050082 -0.022704769645909485 -0.43939714890878184 5.43024979592643 -0.24761224073153548 0.20748525685088104 2.4452821896907886 6.815722939988344" Properties=species:S:1:pos:R:3 unique_starting_index=87 config_type=initial n_minim_iter=13 stress="-0.008463326252493504 0.0027350461198462498 0.00297364473393924 0.0027350461198462498 0.0014869222693331366 -0.003649336037284052 0.00297364473393924 -0.003649336037284052 0.0006612663021903853" pbc="T T T"
Si       1.66007595       5.60024512       4.48728274
Si       1.83223098       2.18874637       4.05798198
Si       2.86416454       2.75350664       1.60832671
Si       1.39436688       4.20748479       1.09698232
Si       1.66644498       1.71599632       6.13557249
Si       1.72430077       1.30542409      -1.32846333
Si       4.72653321       5.83415212       6.65921483
Si       2.12666115       4.05958778       3.10754710
Si       2.63281700       5.57159085       6.38090494
Si       5.70784814       3.16976625       4.13459505
10
Lattice="5.4143015202135185 -0.8096395238868154 -0.02438830474909216 -0.4358489661653704 5.430986729179208 -0.2454835490682877 0.20736356798043548 2.4483923502631453 6.815344843126433" Properties=species:S:1:pos:R:3 unique_starting_index=87 config_type=initial n_minim_iter=14 stress="-0.007261365031593259 0.003689202510185551 0.0028970452212463108 0.003689202510185551 -0.005216926622780235 -0.00401216855331721 0.0028970452212463108 -0.00401216855331721 -0.011915401067340717" pbc="T T T"
Si       1.66122122       5.60660259       4.48746503
Si       1.84373983       2.19462979       4.05862647
Si       2.86480478       2.75407492       1.61203336
Si       1.39228368       4.20766056       1.09538543
Si       1.66462518       1.71787505       6.13211310
Si       1.72572925       1.30598544      -1.32700092
Si       4.73022975       5.84305142       6.65756154
Si       2.12701967       4.06390406       3.10444536
Si       2.63363702       5.57470310       6.38481975
Si       5.71261156       3.17631492       4.13447577
10
Lattice="5.422801925194393 -0.8094924805983235 -0.03494957423335041 -0.436423245046684 5.426817692548256 -0.23996360811343903 0.19516573756693942 2.452618885634063 6.817198899131253" Properties=species:S:1:pos:R:3 unique_starting_index=87 config_type=initial n_minim_iter=15 stress="0.0015101849240969777 -0.0013466161639047068 -0.0011923166171002807 -0.0013466161639047068 -0.00797936963214527 0.0019716718121294305 -0.0011923166171002807 0.0019716718121294305 -0.015002910198332189" pbc="T T T"
Si       1.65423863       5.60468359       4.48794568
Si       1.85426175       2.19989138       4.05736081
Si       2.86377118       2.74807961       1.61245191
Si       1.38505651       4.20223587       1.09496692
Si       1.65128050       1.71848624       6.12857060
Si       1.73250620       1.30325601      -1.32531558
Si       4.72429038       5.84709927       6.65114626
Si       2.12099344       4.06975606       3.09976499
Si       2.62661080       5.57619603       6.39039489
Si       5.71557310       3.17850392       4.12693227
10
Lattice="5.426513695060284 -0.8077212750681909 -0.041406611537267 -0.4344939248312755 5.4276190976337215 -0.23508442054102738 0.18879504426186597 2.458365150873359 6.810805013010376" Properties=species:S:1:pos:R:3 unique_starting_index=87 config_type=initial n_minim_iter=16 stress="0.011115797926000317 -0.0036859902783806936 -0.002897609059960066 -0.0036859902783806936 -0.007229976187954255 0.0029737796618554673 -0.002897609059960066 0.0029737796618554673 -0.015901808560442633" pbc="T T T"
Si       1.65335351       5.60904596       4.48740340
Si       1.86669227       2.20761970       4.05171505
Si       2.86239600       2.74651218       1.61528583
Si       1.37935403       4.20117027       1.09425118
Si       1.64220818       1.72083493       6.11771234
Si       1.73826196       1.30228306      -1.31954477
Si       4.72119352       5.85744622       6.63995120
Si       2.11775739       4.07822172       3.09213572
Si       2.62307995       5.58446186       6.38420139
Si       5.71742017       3.18530455       4.11736297
10
Lattice="5.426176534612273 -0.8021676461729912 -0.044522944302739856 -0.4285128282051593 5.42960898994121 -0.23029115526855048 0.1884094893038701 2.465632089056617 6.813637104830502" Properties=species:S:1:pos:R:3 unique_starting_index=87 config_type=initial n_minim_iter=17 stress="0.007074002710270012 -0.003321057347552583 -0.003162077756603379 -0.003321057347552583 -0.006996983446363121 0.005964035910605839 -0.003162077756603379 0.005964035910605839 -0.014809873332482152" pbc="T T T"
Si       1.65861176       5.61647367       4.49258384
Si       1.87887300       2.21765263       4.05348968
Si       2.86211061       2.74976494       1.62012870
Si       1.37780039       4.20279652       1.09576243
Si       1.63925162       1.72879645       6.11620655
Si       1.74089895       1.30072037      -1.31709172
Si       4.72285958       5.87247601       6.64249320
Si       2.11861691       4.08841025       3.09349093
Si       2.62620264       5.59685029       6.38945893
Si       5.72239065       3.19711369       4.11768435
10
Lattice="5.4235285080930185 -0.7891285174086767 -0.05377017084283278 -0.4153809484371361 5.426880832460344 -0.2272217192794387 0.18305468228862193 2.468927172105814 6.825744445103859" Properties=species:S:1:pos:R:3 unique_starting_index=87 config_type=initial n_minim_iter=18 stress="0.0035702597230984744 3.662781045665852e-05 -0.002979757149487054 3.662781045665852e-05 0.010734711219519681 -0.0019411949543940857 -0.002979757149487054 -0.0019411949543940857 0.003967612472602859" pbc="T T T"
Si       1.66740476       5.61971169       4.50200566
Si       1.91654178       2.22877182       4.05701482
Si       2.85191336       2.75282419       1.62753802
Si       1.36500496       4.19482395       1.08966243
Si       1.62333883       1.73589130       6.11697672
Si       1.74814884       1.30225508      -1.31201691
Si       4.72131767       5.88986497       6.64554001
Si       2.12118530       4.10286277       3.08953077
Si       2.62518149       5.60162363       6.40545885
Si       5.72986867       3.21301083       4.11794443
10
Lattice="5.424069592065554 -0.7838893364530736 -0.05178059325172474 -0.4103463547006645 5.4270243719793765 -0.226337481663404 0.18816455689468597 2.4709281792839897 6.830212731849627" Properties=species:S:1:pos:R:3 unique_starting_index=87 config_type=initial n_minim_iter=19 stress="0.0012519545919286348 0.0009739175201616977 -0.0007240138995728172 0.0009739175201616977 0.005276944749116012 -0.0018754924797244766 -0.0007240138995728172 -0.0018754924797244766 0.002269697419088131" pbc="T T T"
Si       1.67657347       5.62314393       4.50630360
Si       1.92280819       2.23480882       4.06481019
Si       2.85296919       2.75421299       1.62898254
Si       1.36595887       4.19538676       1.09220047
Si       1.62452932       1.73751661       6.12022427
Si       1.75218441       1.30725010      -1.31269290
Si       4.72906010       5.89636971       6.65267313
Si       2.12846296       4.10566152       3.09232658
Si       2.63468093       5.60713966       6.41119257
Si       5.73869793       3.21841854       4.12279655
10
Lattice="5.42150982233453 -0.7810309775312053 -0.05238385774695295 -0.40777331558435587 5.423737567148647 -0.22533869317458288 0.1885761300738611 2.4708959323941637 6.830951001019596" Properties=species:S:1:pos:R:3 unique_starting_index=87 config_type=initial n_minim_iter=20 stress="-0.0017896648242409052 -4.8668098670395e-05 0.00016454987238489642 -4.8668098670395e-05 -0.0029485038886356545 -0.0006125662755641345 0.00016454987238489642 -0.0006125662755641345 0.001194419999386152" pbc="T T T"
Si       1.67944575       5.62365064       4.50292196
Si       1.91764780       2.23584202       4.06805105
Si       2.85094887       2.75198809       1.62633449
Si       1.36697065       4.19291330       1.09599981
Si       1.62261811       1.73915727       6.12203384
Si       1.75582696       1.30843276      -1.31138349
Si       4.72845031       5.89522535       6.65531704
Si       2.13159454       4.10340913       3.09319579
Si       2.63451848       5.60877810       6.40942095
Si       5.74002886       3.21844560       4.12292297
10
Lattice="5.41987911498938 -0.7833247077017054 -0.04872150259759356 -0.4103544282941198 5.421754826387866 -0.2228350009416185 0.19247992207999914 2.473472616997175 6.831709011840381" Properties=species:S:1:pos:R:3 unique_starting_index=87 config_type=initial n_minim_iter=21 stress="-0.0023552614118721006 -0.0010891303775935847 0.000709913511907533 -0.0010891303775935847 -0.0014905268029029462 0.0006391929598254823 0.000709913511907533 0.0006391929598254823 0.0009338914309755565" pbc="T T T"
Si       1.67968595       5.62343250       4.50680997
Si       1.91975875       2.23624483       4.07130052
Si       2.84766338       2.74731044       1.62773669
Si       1.36279040       4.18965013       1.09954610
Si       1.62629912       1.74116900       6.12430390
Si       1.75567406       1.30607800      -1.30952813
Si       4.72753382       5.89419592       6.66286842
Si       2.13403676       4.10404098       3.09499101
Si       2.63369888       5.61114466       6.41277472
Si       5.74141659       3.21736774       4.12916772
