12
Lattice="11.13430410691945 0.7828144712477366 1.2677477207209356 5.003999087444196 5.3708194891516206 0.2294775251368742 6.319421180469678 -0.3959614746619646 6.431910226528062" Properties=species:S:1:pos:R:3 unique_starting_index=78 config_type=initial n_minim_iter=1 energy=-1960.055589204781 free_energy=-1960.055589204781 pbc="T T T"
Si       7.77511082       3.07634271       4.17587395
Si      14.26523051       2.17143316       3.34817171
Si      17.91267230       6.04515342       2.92044999
Si       9.39666387       2.29628900       3.11756940
Si       8.07267444       3.67630811       2.15589529
Si      12.61914784       4.84445449       6.02372876
Si      11.02705165       1.38024429       2.03830264
Si      12.85775000       3.02748713       7.11409933
Si       9.12064205       0.43564714       2.09743942
Si      13.15289420       2.42096277       1.55025008
Si       9.40024023       2.60957199       5.46858151
Si      10.92855347       3.67316815       6.51237426
12
Lattice="11.125503527402529 0.7669369012916107 1.254234730720661 4.9939154746522325 5.35677241209219 0.22226448514291536 6.308856727850105 -0.40520207626257715 6.42293328566829" Properties=species:S:1:pos:R:3 unique_starting_index=78 config_type=initial n_minim_iter=2 stress="-0.009640193103227217 -9.011106769142707e-05 0.0007232103148590579 -9.011106769142707e-05 -0.004618399258349102 -0.0028449515614954444 0.0007232103148590579 -0.0028449515614954444 -0.004880077641655062" pbc="T T T"
Si       7.76216239       3.06095814       4.16506315
Si      14.25015049       2.14842200       3.32990710
Si      17.89174371       6.01298385       2.89772633
Si       9.38465331       2.28007483       3.10510368
Si       8.06051704       3.66024704       2.14493703
Si      12.59894897       4.81978115       6.00590372
Si      11.01613660       1.36341265       2.02459537
Si      12.83842784       3.00495689       7.09661412
Si       9.11253351       0.42287780       2.08628181
Si      13.14059158       2.40003632       1.53392367
Si       9.38505386       2.59250699       5.45531662
Si      10.90979357       3.65220551       6.49707373
12
Lattice="11.13717329780012 0.7631506811012437 1.250112192598051 4.997364124548406 5.355942209513323 0.22176435667636396 6.313192198610071 -0.4057513125227395 6.4236330279211185" Properties=species:S:1:pos:R:3 unique_starting_index=78 config_type=initial n_minim_iter=3 stress="0.0034105986478280893 -0.003096031005421929 -0.0020434320695263486 -0.003096031005421929 0.0013024073285972243 -0.0004006467817999207 -0.0020434320695263486 -0.0004006467817999207 0.0037494816956596933" pbc="T T T"
Si       7.76833651       3.05991688       4.16497145
Si      14.26398808       2.14372453       3.32599851
Si      17.90859802       6.00795177       2.89364640
Si       9.39278795       2.27788255       3.10314929
Si       8.06672951       3.65869095       2.14357933
Si      12.60873309       4.81745342       6.00447950
Si      11.02666510       1.36015136       2.02109958
Si      12.84883112       3.00291477       7.09598504
Si       9.12164840       0.42016823       2.08360018
Si      13.15397140       2.39602623       1.52962865
Si       9.39186782       2.59113886       5.45445118
Si      10.91733834       3.65064803       6.49723926
12
Lattice="11.142466706385553 0.7719812906164032 1.249385110390491 5.003423349163425 5.356767272330957 0.22621149680478791 6.315475079339623 -0.395200870362139 6.417007768599258" Properties=species:S:1:pos:R:3 unique_starting_index=78 config_type=initial n_minim_iter=4 stress="0.004436863127153344 -0.0005345680465105596 -0.0007223011601860493 -0.0005345680465105596 0.0005279841370683351 0.0032839252244835936 -0.0007223011601860493 0.0032839252244835936 8.482642612596697e-05" pbc="T T T"
Si       7.77698638       3.06818300       4.16383865
Si      14.27276310       2.15274894       3.32470885
Si      17.92208406       6.01893037       2.89871146
Si       9.39761129       2.28645169       3.10088584
Si       8.07003387       3.66554750       2.14468000
Si      12.61747075       4.82862937       6.00069969
Si      11.03069126       1.36925987       2.01869390
Si      12.85742173       3.01825953       7.09254593
Si       9.12670897       0.42872988       2.08218894
Si      13.16257806       2.40661984       1.53051139
Si       9.39611851       2.60183985       5.44834350
Si      10.92243268       3.66244749       6.49654754
12
Lattice="11.140697519834626 0.7730010992243032 1.2479148688621595 5.003651331050738 5.358928777779423 0.21994553031464564 6.31340800862574 -0.40088655907724136 6.422076388984166" Properties=species:S:1:pos:R:3 unique_starting_index=78 config_type=initial n_minim_iter=5 stress="0.004776434103457419 0.003252678726524735 -0.002146942307110017 0.003252678726524735 0.002459915941475768 -0.00488734929634326 -0.002146942307110017 -0.00488734929634326 0.006063384812067101" pbc="T T T"
Si       7.77796437       3.06728147       4.16269111
Si      14.27274253       2.14856650       3.32404102
Si      17.91874715       6.01984983       2.89377075
Si       9.39511834       2.28588576       3.09818419
Si       8.06594375       3.66753866       2.14118921
Si      12.61540134       4.82709446       5.99803603
Si      11.03009975       1.36905708       2.01573558
Si      12.85536619       3.01538585       7.09459063
Si       9.12495621       0.42915352       2.08324030
Si      13.16155752       2.40815056       1.52691982
Si       9.39507990       2.59929409       5.44676518
Si      10.91837903       3.65711728       6.49880710
12
Lattice="11.135027388799266 0.751904375998008 1.2587228284222867 4.989916542191463 5.351178338170031 0.2355595464069943 6.317085662321269 -0.4012497624343861 6.423159865827913" Properties=species:S:1:pos:R:3 unique_starting_index=78 config_type=initial n_minim_iter=6 stress="-0.005034776011557106 0.000489062320529591 -0.0011658928557591916 0.000489062320529591 0.0017027474386503612 0.0026213825838361147 -0.0011658928557591916 0.0026213825838361147 -0.0031469704557549752" pbc="T T T"
Si       7.77631568       3.06466297       4.17126916
Si      14.27113105       2.11499164       3.34149800
Si      17.89501689       5.98722965       2.92338514
Si       9.38584518       2.27453538       3.10523416
Si       8.04805496       3.66108811       2.15546477
Si      12.60322676       4.81608601       6.01576109
Si      11.02707739       1.34921772       2.02374970
Si      12.84897054       3.00826951       7.10992444
Si       9.12045328       0.41638814       2.09456485
Si      13.15481675       2.38422131       1.54213223
Si       9.39299637       2.59254960       5.45313585
Si      10.90892771       3.64433557       6.51740966
12
Lattice="11.148345573857204 0.7411971339096196 1.270962814991396 4.991106850481584 5.3416030712081195 0.24044121661480222 6.331516158880331 -0.4071143840218342 6.431873543050856" Properties=species:S:1:pos:R:3 unique_starting_index=78 config_type=initial n_minim_iter=7 stress="0.007318651876466297 -0.005297105508869436 0.00846638762175538 -0.005297105508869436 -0.004779060103482826 -0.0017236272085603443 0.00846638762175538 -0.0017236272085603443 0.00014578119420852843" pbc="T T T"
Si       7.78839817       3.05637051       4.17995119
Si      14.29185483       2.09460091       3.35759171
Si      17.91098620       5.96382266       2.94334377
Si       9.39673093       2.26449936       3.11340801
Si       8.05348855       3.65294938       2.16444510
Si      12.61958550       4.80020085       6.03117296
Si      11.04011519       1.33804557       2.03465256
Si      12.86682862       2.99525259       7.12532489
Si       9.13268677       0.40831087       2.10620096
Si      13.17128426       2.36926714       1.55718557
Si       9.40943344       2.58129348       5.46269375
Si      10.92498909       3.62955301       6.53405886
12
Lattice="11.159990304562276 0.7352059389725112 1.268214421844687 4.99336516253449 5.335780565070978 0.24428670546959014 6.336067365638107 -0.403832929081929 6.435848728068715" Properties=species:S:1:pos:R:3 unique_starting_index=78 config_type=initial n_minim_iter=8 stress="0.0016285755119430615 0.0066719157742840636 -0.001963182625293792 0.0066719157742840636 -0.007997634683714 0.004607361164660336 -0.001963182625293792 0.004607361164660336 0.0019289580223976904" pbc="T T T"
Si       7.79880145       3.06097073       4.18407621
Si      14.31476522       2.06909610       3.35594938
Si      17.91666877       5.94771594       2.94535519
Si       9.40093618       2.26411105       3.10586038
Si       8.05051980       3.65829625       2.16684855
Si      12.62852077       4.79740243       6.03939201
Si      11.04913296       1.33389369       2.03043882
Si      12.86911727       2.99975639       7.12971574
Si       9.14199332       0.40586504       2.10893800
Si      13.19201120       2.35784657       1.55990871
Si       9.42382903       2.58049456       5.46041601
Si      10.93262778       3.62465664       6.55278031
12
Lattice="11.157050661952521 0.6765503075191442 1.2896832157108558 4.962468234582494 5.344362331219977 0.2541354230357104 6.351301948908997 -0.4433555664563781 6.43904044729477" Properties=species:S:1:pos:R:3 unique_starting_index=78 config_type=initial n_minim_iter=9 stress="0.000597510831995132 -0.00020997121646573066 0.000675953621531097 -0.00020997121646573066 0.015209396744722612 0.001160541649211149 0.000675953621531097 0.001160541649211149 -0.001128701130464846" pbc="T T T"
Si       7.79935475       3.04894970       4.19567794
Si      14.32357429       1.96449876       3.37530050
Si      17.86816467       5.88021424       2.97733137
Si       9.38693557       2.23424294       3.10356948
Si       8.01889159       3.65657740       2.17856845
Si      12.60994209       4.76171311       6.05922133
Si      11.04038550       1.28516266       2.04645851
Si      12.85643140       2.95207206       7.14577223
Si       9.14435157       0.35510259       2.13009612
Si      13.19752584       2.29286732       1.59460930
Si       9.43294710       2.54450242       5.46002051
Si      10.92001731       3.58417701       6.58546719
12
Lattice="11.198182807045086 0.5898577834395815 1.3447651409955013 4.939399530456979 5.293618816049453 0.2931274928206072 6.408457347341063 -0.47454639148682654 6.467887897161918" Properties=species:S:1:pos:R:3 unique_starting_index=78 config_type=initial n_minim_iter=10 stress="0.001973732540980612 0.004699951852226465 0.01225473751427106 0.004699951852226465 -0.0007252939959689826 0.0004376630943009013 0.01225473751427106 0.0004376630943009013 0.004012684486310235" pbc="T T T"
Si       7.84689213       3.01312122       4.25079464
Si      14.40876853       1.78206375       3.43828047
Si      17.85612627       5.72378236       3.07797303
Si       9.40579623       2.18073536       3.12067162
Si       8.00521119       3.63004854       2.22318723
Si      12.63985698       4.67439085       6.13632714
Si      11.08097135       1.21206738       2.09788001
Si      12.90119303       2.86919369       7.21585594
Si       9.18120620       0.28047242       2.18448627
Si      13.27138682       2.17421563       1.67974624
Si       9.49504417       2.47793831       5.49162109
Si      10.95016292       3.51072859       6.68441769
12
Lattice="11.26331647346838 0.5301331023492297 1.360917014011083 4.941378036706507 5.261591721976886 0.30251958263868295 6.46298329906498 -0.5080035796941182 6.434936060410503" Properties=species:S:1:pos:R:3 unique_starting_index=78 config_type=initial n_minim_iter=11 stress="0.04344131540315233 0.02399804563858669 0.016358824763828043 0.02399804563858669 0.0141806434466742 0.0030070673720938284 0.016358824763828043 0.0030070673720938284 -0.007394597884017981" pbc="T T T"
Si       7.91323382       2.98833810       4.24453581
Si      14.52666861       1.63092099       3.43776792
Si      17.89669352       5.61144481       3.10239832
Si       9.44696954       2.14412075       3.08687164
Si       8.01876787       3.62225807       2.22673206
Si      12.69483618       4.61265674       6.12035238
Si      11.13931052       1.17529006       2.10424725
Si      12.96237592       2.79760833       7.19079592
Si       9.22754998       0.22553625       2.20098259
Si      13.37537257       2.08790404       1.70722098
Si       9.57004225       2.42544434       5.45867795
Si      11.00296043       3.44549309       6.68798973
12
Lattice="11.253138010728902 0.4963293641709595 1.3861456068809375 4.920650377204141 5.246039898266163 0.31534931026831087 6.471698176758067 -0.5249292526924789 6.456664825761406" Properties=species:S:1:pos:R:3 unique_starting_index=78 config_type=initial n_minim_iter=12 stress="0.038034199837056706 0.026721317141378393 0.02393051296683847 0.026721317141378393 0.021729824186967686 0.003084053335520605 0.02393051296683847 0.003084053335520605 0.012472174754704479" pbc="T T T"
Si       7.91822233       2.97507225       4.27181942
Si      14.53173615       1.55114384       3.46925925
Si      17.84829186       5.55230859       3.15033441
Si       9.43309534       2.12431208       3.09582586
Si       7.99548995       3.61770694       2.24805821
Si      12.67490465       4.57973930       6.15558126
Si      11.12496791       1.15349946       2.12832187
Si      12.94771805       2.76003650       7.22678538
Si       9.21728151       0.19561885       2.22851503
Si      13.37546200       2.04188269       1.74125398
Si       9.57370727       2.39853004       5.48061960
Si      10.99347847       3.41353377       6.73364282
12
Lattice="11.256627314943662 0.4706783684821217 1.3687333558693748 4.911001681576833 5.23612052731433 0.30816682900749093 6.468087229032372 -0.539847565951413 6.434654780501948" Properties=species:S:1:pos:R:3 unique_starting_index=78 config_type=initial n_minim_iter=13 stress="0.03996883259690167 0.02497187305453779 0.028010304993903827 0.02497187305453779 0.02555523401056552 0.006119094608500614 0.028010304993903827 0.006119094608500614 0.011200890066789485" pbc="T T T"
Si       7.93228920       2.97701273       4.25142574
Si      14.56170274       1.44262692       3.43453608
Si      17.80257430       5.50692665       3.13823185
Si       9.42403400       2.12242109       3.05203557
Si       7.98041322       3.63653885       2.24007186
Si      12.64763534       4.55445550       6.12266458
Si      11.11453857       1.14457171       2.10034122
Si      12.93074386       2.72198656       7.18876007
Si       9.20980032       0.17009615       2.22168508
Si      13.40594662       2.00155770       1.72379185
Si       9.58791311       2.37896288       5.45470554
Si      10.97806700       3.39952444       6.72200336
12
Lattice="11.233361452169257 0.490682615433986 1.342222273227941 4.908638041008676 5.236651664281726 0.31671336920181875 6.43957052580027 -0.5046676159956095 6.406659992494375" Properties=species:S:1:pos:R:3 unique_starting_index=78 config_type=initial n_minim_iter=14 stress="0.022342636236262828 0.015458563835580324 0.012412633885745823 0.015458563835580324 0.022231738277271783 0.0007462433277637181 0.012412633885745823 0.0007462433277637181 0.025029382386565848" pbc="T T T"
Si       7.93290337       3.01240820       4.24418459
Si      14.55061899       1.39637059       3.39082984
Si      17.73285606       5.53789089       3.13747695
Si       9.40370980       2.16519696       3.01634602
Si       7.97093876       3.68626606       2.23026488
Si      12.60536166       4.59917786       6.10587384
Si      11.06772155       1.19019643       2.06280874
Si      12.89657417       2.74942258       7.14797489
Si       9.18045986       0.19388119       2.20663757
Si      13.40103717       2.00468898       1.68765454
Si       9.57021806       2.40761242       5.44277635
Si      10.93917905       3.44469350       6.70344412
12
Lattice="11.26099209317193 0.5414181512971462 1.3053753554820897 4.944475034552108 5.2594163297048455 0.30524347972550325 6.437424920224419 -0.47310911997378846 6.340960525856249" Properties=species:S:1:pos:R:3 unique_starting_index=78 config_type=initial n_minim_iter=15 stress="0.014721448901296256 0.005566932380708881 0.00206569653203445 0.005566932380708881 0.002709723515546474 0.0074849171115813256 0.00206569653203445 0.0074849171115813256 -0.0010367562519428258" pbc="T T T"
Si       7.96175602       3.05065711       4.19819208
Si      14.59278139       1.42344934       3.32616299
Si      17.78024890       5.64442859       3.07835670
Si       9.43591019       2.22034058       2.98032581
Si       8.01610753       3.72751460       2.18324673
Si      12.63068276       4.66108121       6.02703166
Si      11.07901048       1.24437562       2.00210795
Si      12.93472634       2.80067261       7.06853313
Si       9.19261895       0.25025575       2.17379462
Si      13.43626875       2.04884523       1.64686189
Si       9.58863858       2.44928129       5.39018759
Si      10.98270495       3.50479080       6.62170547
12
Lattice="11.261141954144149 0.5520430805928649 1.2894960391923882 4.950377759673625 5.2586521648989235 0.2966029577845805 6.430564024448492 -0.4689762754242637 6.315530927456777" Properties=species:S:1:pos:R:3 unique_starting_index=78 config_type=initial n_minim_iter=16 stress="0.015307204664015138 0.0020913674260318905 0.0036762927206247923 0.0020913674260318905 -0.007465516357763942 0.006338497850786954 0.0036762927206247923 0.006338497850786954 -0.008620570788764792" pbc="T T T"
Si       7.96091951       3.05665294       4.17403209
Si      14.60324045       1.41530109       3.29873025
Si      17.76754736       5.66102666       3.04948073
Si       9.43800332       2.23261083       2.96548110
Si       8.02227553       3.73037798       2.16076249
Si      12.62920566       4.66239995       5.98718853
Si      11.06632581       1.25898340       1.97810426
Si      12.93651810       2.81059186       7.03756394
Si       9.19783602       0.26461607       2.15790875
Si      13.43816384       2.05646998       1.62663769
Si       9.58916905       2.45066192       5.37221831
Si      10.97982443       3.51116806       6.58936670
12
Lattice="11.247612263037947 0.5754628740232435 1.2719820480213813 4.956199720306742 5.26995040805413 0.2811376925594022 6.412452309121176 -0.4642871062663501 6.308091770301676" Properties=species:S:1:pos:R:3 unique_starting_index=78 config_type=initial n_minim_iter=17 stress="-0.011995553297932258 -0.004670731470778371 -0.0030182274028981233 -0.004670731470778371 -0.008120086512216958 0.003684760499153065 -0.0030182274028981233 0.003684760499153065 -0.009748258907232929" pbc="T T T"
Si       7.94371361       3.06891549       4.15305627
Si      14.58155466       1.43634463       3.27085257
Si      17.75422159       5.70297440       3.01844186
Si       9.42953792       2.25320542       2.96122352
Si       8.02511756       3.73578878       2.14040044
Si      12.61726973       4.67516160       5.95704851
Si      11.05328056       1.28764536       1.95435859
Si      12.92078744       2.83859664       7.01908296
Si       9.19073536       0.28328484       2.14031001
Si      13.42085664       2.08714963       1.60100989
Si       9.57437430       2.45845961       5.36712804
Si      10.96460816       3.52545849       6.56749837
12
Lattice="11.267194173111687 0.5591477827533143 1.2523075183910934 4.958620923847704 5.2726417706945305 0.26282358624260294 6.416103232625604 -0.48630487264301336 6.292510602565477" Properties=species:S:1:pos:R:3 unique_starting_index=78 config_type=initial n_minim_iter=18 stress="0.0017171368930130105 -1.6967716975368333e-05 -0.0037287033846681106 -1.6967716975368333e-05 0.0029349158165772687 0.0012130484828428367 -0.0037287033846681106 0.0012130484828428367 -0.0063999885869223125" pbc="T T T"
Si       7.95135269       3.05979379       4.13129390
Si      14.61096471       1.38979539       3.23520543
Si      17.76451543       5.68202624       2.98073813
Si       9.43995062       2.24457152       2.94091506
Si       8.03229428       3.73221157       2.11766663
Si      12.62371295       4.65274699       5.92429049
Si      11.07138584       1.27687046       1.92402763
Si      12.92991278       2.82061698       6.98613986
Si       9.20851310       0.26952335       2.12431070
Si      13.44819763       2.07150927       1.57468079
Si       9.58175870       2.43668526       5.34180584
Si      10.97109698       3.50446995       6.54416879
12
Lattice="11.269588190854611 0.5447822502353739 1.2552102181064495 4.952909388936931 5.270939074340727 0.26315326294519786 6.419425731533404 -0.4959386187624625 6.3004259238326945" Properties=species:S:1:pos:R:3 unique_starting_index=78 config_type=initial n_minim_iter=19 stress="0.009566660518991469 0.003395644107664918 0.0033694858533888515 0.003395644107664918 0.015522262496690637 -0.0006161166814685604 0.0033694858533888515 -0.0006161166814685604 0.007942580366266348" pbc="T T T"
Si       7.95148195       3.05447335       4.13627324
Si      14.61762986       1.35458718       3.23229121
Si      17.75191018       5.66240791       2.98965476
Si       9.44216208       2.23502200       2.94707097
Si       8.03170440       3.72745705       2.12542063
Si      12.62073771       4.64015106       5.93227141
Si      11.07450293       1.26753204       1.92192696
Si      12.92862194       2.81009523       6.99352461
Si       9.21498144       0.26192986       2.12875153
Si      13.45129448       2.05434261       1.57995792
Si       9.57986733       2.42533204       5.34583349
Si      10.96766764       3.49205648       6.55814335
12
Lattice="11.260756257129215 0.5195741104952153 1.2656057896390251 4.936391389090783 5.253785868840998 0.27904475634979947 6.419037006371053 -0.49556090137566505 6.3201969138435485" Properties=species:S:1:pos:R:3 unique_starting_index=78 config_type=initial n_minim_iter=20 stress="0.0019783245120708623 0.004123144272886717 0.007693027976611164 0.004123144272886717 1.732229039628394e-05 0.0038245089926837814 0.007693027976611164 0.0038245089926837814 0.0041856876011319355" pbc="T T T"
Si       7.93988089       3.04534151       4.16282863
Si      14.61755596       1.29196846       3.23194125
Si      17.71719609       5.61043776       3.01923401
Si       9.44173164       2.21488778       2.97201140
Si       8.01092044       3.72203495       2.14983404
Si      12.60047482       4.61752062       5.97122137
Si      11.06987162       1.25656314       1.92318903
Si      12.91512123       2.80112181       7.02504396
Si       9.21405869       0.25369531       2.14159125
Si      13.43407673       2.01703319       1.60583440
Si       9.56813493       2.41724831       5.36600529
Si      10.94469857       3.47757287       6.59929247
12
Lattice="11.241838494922957 0.5169154080689276 1.2504911874296378 4.927582630007141 5.254674274307436 0.2671903541686764 6.401304494765603 -0.5032530842279861 6.310532846684728" Properties=species:S:1:pos:R:3 unique_starting_index=78 config_type=initial n_minim_iter=21 stress="-0.009924213472096028 0.0031691577360111658 -0.0014169079446585422 0.0031691577360111658 0.00016907520732431804 -0.005947727465292118 -0.0014169079446585422 -0.005947727465292118 0.0023746291300675774" pbc="T T T"
Si       7.91624707       3.03812326       4.14957398
Si      14.59419512       1.27830900       3.19732169
Si      17.68373995       5.60004254       2.98877849
Si       9.43312082       2.20864590       2.96762722
Si       7.99673696       3.71765564       2.13758862
Si      12.57540077       4.61183584       5.94645924
Si      11.05139281       1.25722032       1.90052511
Si      12.88849672       2.79317942       7.00644115
Si       9.19502093       0.25929087       2.12944836
Si      13.40368957       2.01848629       1.58592815
Si       9.53849899       2.41068017       5.35407400
Si      10.92281977       3.47639094       6.58145527
