6
Lattice="4.013166603335071 -8.37493982727992e-17 3.7744003310474244e-17 9.358969665632364e-17 4.44099866530567 -0.09929648141262848 -8.906198166812327e-17 -1.0169469935753224 7.211194064665489" Properties=species:S:1:pos:R:3 unique_starting_index=75 config_type=initial n_minim_iter=3 energy=-977.0662113697254 free_energy=-977.0662113697254 pbc="T T T"
Si       1.00488997       2.07085415       3.80029636
Si       3.00827663       2.57932765       0.19469933
Si       3.00848734       0.84550761       5.21552764
Si       1.00467926       1.35398110       1.60993060
Si       3.01517277       0.51733750       0.68480047
Si       0.99799383       0.00886400       4.29039750
