22
Lattice="5.578833902656074 -0.6430008560434699 -1.327036535428688 -2.382234550901328 10.884584127903743 -1.9856502843093564 -4.487715832713171 -5.096221390940522 10.93635622991558" Properties=species:S:1:pos:R:3 unique_starting_index=18 config_type=initial n_minim_iter=1 energy=-3583.3096284572784 free_energy=-3583.3096284572784 pbc="T T T"
Si       0.41132909       9.50119362      -0.67567895
Si      -0.94287827      -0.64425008       5.58441558
Si      -3.85054671      -3.55380644       9.77482337
Si       0.15360807      -2.79557322       8.85491348
Si      -5.23852112      -0.31217288       9.10743537
Si       4.07504498       2.12515572      -0.03538008
Si       2.21705540       0.70616664       0.36027041
Si      -1.75802685       1.72484536       8.17932333
Si      -1.76492913      -3.60208001       9.39146485
Si      -2.32153911       1.24282758       5.89191131
Si       1.36779141      -0.20445833       2.74384072
Si      -2.68531481       3.66467401       5.01535114
Si      -2.92920390      -2.24885665       6.34511597
Si      -0.71332598       7.09887075      -1.02873741
Si       1.43174531       1.51473151       3.99869482
Si       1.08813820       7.87684186      -1.85353952
Si      -0.76621636      -1.16383086       3.18935098
Si       2.69962778      -4.86244373       6.36573369
Si      -0.17255960       2.35026289       2.89334384
Si      -3.01277599       2.92968067       6.97424472
Si      -1.08740341       4.18584815       3.43744665
Si      -1.62087192      -2.00988589       7.99831680
22
Lattice="5.579261174055939 -0.6470138592894279 -1.32633590626554 -2.39038548559964 10.89256741797235 -1.9890541367552141 -4.4816553051343835 -5.09752975623282 10.942728282252144" Properties=species:S:1:pos:R:3 unique_starting_index=18 config_type=initial n_minim_iter=2 stress="0.006909261958386576 -0.00033605135204522075 0.0015066311918186552 -0.00033605135204522075 0.004713562307987678 0.0004637694940460925 0.0015066311918186552 0.0004637694940460925 0.005630883622160527" pbc="T T T"
Si       0.40455463       9.50642537      -0.67728493
Si      -0.94106855      -0.64481206       5.58775896
Si      -3.84577898      -3.55452582       9.78044013
Si       0.15782543      -2.79863227       8.86092739
Si      -5.23628644      -0.30998578       9.11171733
Si       4.07387031       2.12358634      -0.03455574
Si       2.21683941       0.70507621       0.36074221
Si      -1.75709106       1.72567543       8.18385404
Si      -1.76022297      -3.60432391       9.39729390
Si      -2.32097110       1.24423013       5.89479018
Si       1.36873994      -0.20573200       2.74606451
Si      -2.68673872       3.66786403       5.01705364
Si      -2.92618335      -2.24904296       6.34865894
Si      -0.71840044       7.10348294      -1.03062084
Si       1.43175540       1.51388226       4.00118040
Si       1.08223803       7.88062621      -1.85539121
Si      -0.76465581      -1.16441832       3.19134934
Si       2.70486440      -4.86786241       6.37113773
Si      -0.17318480       2.35109333       2.89479497
Si      -3.01343902       2.93262158       6.97737373
Si      -1.08958700       4.18852891       3.43868041
Si      -1.61762933      -2.01097220       8.00306472
22
Lattice="5.5752516071094504 -0.6499371192919874 -1.3257858401612095 -2.39490240035018 10.89358404707696 -1.990933385016798 -4.474713676350355 -5.096617820452803 10.942150093515" Properties=species:S:1:pos:R:3 unique_starting_index=18 config_type=initial n_minim_iter=3 stress="-0.0009304608640137662 -0.0027466691035985323 0.0008880440367017051 -0.0027466691035985323 0.0027426760054349067 -0.0003546435939470799 0.0008880440367017051 -0.0003546435939470799 0.0007743024720394871" pbc="T T T"
Si       0.39868074       9.50578138      -0.67889597
Si      -0.93971699      -0.64534370       5.58721292
Si      -3.84024370      -3.55384639       9.77979403
Si       0.15972778      -2.80035783       8.86049489
Si      -5.23163926      -0.30854647       9.11032134
Si       4.06961327       2.12117275      -0.03456357
Si       2.21482844       0.70387480       0.36025530
Si      -1.75622424       1.72489014       8.18263561
Si      -1.75646998      -3.60492688       9.39661917
Si      -2.31966196       1.24447551       5.89377155
Si       1.36797780      -0.20669370       2.74609119
Si      -2.68656415       3.66827387       5.01537078
Si      -2.92224165      -2.24844290       6.34829609
Si      -0.72180512       7.10363754      -1.03189871
Si       1.42990518       1.51194622       4.00023681
Si       1.07666953       7.87975955      -1.85626143
Si      -0.76328619      -1.16449880       3.19122285
Si       2.70606722      -4.87014735       6.37154680
Si      -0.17382268       2.35023577       2.89408564
Si      -3.01274185       2.93308998       6.97584074
Si      -1.09115610       4.18834875       3.43739523
Si      -1.61499171      -2.01137788       8.00228067
22
Lattice="5.575824446860085 -0.648961469465707 -1.3268328707027452 -2.394752489194758 10.884297591506389 -1.9943443025170036 -4.475898729088927 -5.094502907069868 10.950456168528627" Properties=species:S:1:pos:R:3 unique_starting_index=18 config_type=initial n_minim_iter=4 stress="0.002360609393875111 -0.000682094692501157 0.0012260508873320757 -0.000682094692501157 -0.0018649646639740472 -0.0046410027240936895 0.0012260508873320757 -0.0046410027240936895 0.002446510850645867" pbc="T T T"
Si       0.39870539       9.49781829      -0.68133590
Si      -0.94027945      -0.64643351       5.59117355
Si      -3.84218470      -3.55265239       9.78742457
Si       0.15913242      -2.80063536       8.86700123
Si      -5.23287876      -0.30996077       9.11593176
Si       4.07082463       2.11976954      -0.03412131
Si       2.21541663       0.70406464       0.35826253
Si      -1.75681835       1.72109499       8.18794277
Si      -1.75690994      -3.60412661       9.40257336
Si      -2.32071654       1.24271425       5.89760423
Si       1.36815309      -0.20569863       2.74886578
Si      -2.68689733       3.66438513       5.01654767
Si      -2.92288049      -2.24826689       6.35323514
Si      -0.72130902       7.09741396      -1.03405150
Si       1.42919064       1.50813958       4.00129314
Si       1.07705572       7.87328054      -1.85784078
Si      -0.76377422      -1.16423599       3.19393423
Si       2.70642677      -4.86669993       6.37666795
Si      -0.17191707       2.34644555       2.89580299
Si      -3.01429614       2.92943262       6.97997495
Si      -1.09210332       4.18416729       3.43839491
Si      -1.61610870      -2.01149513       8.00780923
22
Lattice="5.575174872549873 -0.6498028172328372 -1.328090419304578 -2.3940067332553943 10.884638983027843 -1.9875214580182934 -4.476782572313704 -5.088606916717129 10.948819633850418" Properties=species:S:1:pos:R:3 unique_starting_index=18 config_type=initial n_minim_iter=5 stress="0.0013840463446431338 -0.0010230171326385089 -0.00037945522513636664 -0.0010230171326385089 0.0003442531838699087 0.0002847918390013101 -0.00037945522513636664 0.0002847918390013101 0.0015197371816886773" pbc="T T T"
Si       0.39866366       9.49906876      -0.67553265
Si      -0.94096573      -0.64334396       5.59145291
Si      -3.84326709      -3.54717893       9.78672419
Si       0.15779187      -2.79597615       8.86613007
Si      -5.23345367      -0.30435642       9.11692115
Si       4.07060443       2.12024625      -0.03291658
Si       2.21522458       0.70479540       0.35753399
Si      -1.75776435       1.72620022       8.18996164
Si      -1.75777722      -3.59903283       9.40112033
Si      -2.32136078       1.24670583       5.89921735
Si       1.36767163      -0.20362759       2.74910247
Si      -2.68713700       3.66808717       5.01905878
Si      -2.92332140      -2.24494801       6.35286502
Si      -0.72089307       7.09771555      -1.02968319
Si       1.42827171       1.51027498       4.00207768
Si       1.07738478       7.87323935      -1.85288183
Si      -0.76420335      -1.16250166       3.19376485
Si       2.70533046      -4.86332166       6.37383590
Si      -0.17144147       2.34814654       2.89756614
Si      -3.01511893       2.93432081       6.98279804
Si      -1.09268505       4.18695137       3.44118421
Si      -1.61712228      -2.00700431       8.00742742
22
Lattice="5.572440127211809 -0.6484313161132657 -1.3253658217379514 -2.3908334553094353 10.88883449212617 -1.9882957031455466 -4.47155879436002 -5.09202812202183 10.9460028096009" Properties=species:S:1:pos:R:3 unique_starting_index=18 config_type=initial n_minim_iter=6 stress="-0.00019821203645029246 0.000499641169650766 0.0025441089990531174 0.000499641169650766 0.00047269406672773045 0.00040222499370992735 0.0025441089990531174 0.00040222499370992735 0.001432105182179834" pbc="T T T"
Si       0.40085534       9.50370071      -0.67513091
Si      -0.93827837      -0.64420893       5.59090126
Si      -3.83819359      -3.54973430       9.78448070
Si       0.16085957      -2.79746311       8.86611304
Si      -5.22762125      -0.30565529       9.11349530
Si       4.07024546       2.12254608      -0.03057532
Si       2.21503206       0.70626843       0.35753045
Si      -1.75323063       1.72666348       8.18872057
Si      -1.75337651      -3.60103842       9.39982186
Si      -2.31753241       1.24728459       5.89826790
Si       1.36862263      -0.20314197       2.74973381
Si      -2.68299122       3.66892185       5.01724187
Si      -2.92004485      -2.24711145       6.35115075
Si      -0.71912512       7.10038798      -1.02961906
Si       1.43041590       1.51120825       4.00303704
Si       1.07908206       7.87744669      -1.85135758
Si      -0.76291636      -1.16326880       3.19357909
Si       2.70623939      -4.86434503       6.37445934
Si      -0.16859963       2.34920102       2.89713433
Si      -3.01022272       2.93498906       6.98076834
Si      -1.08980994       4.18841002       3.44010509
Si      -1.61340026      -2.00800578       8.00601540
22
Lattice="5.572777252137219 -0.6486242009473795 -1.3268037655010818 -2.390204021499797 10.897647320351416 -1.9898840701218528 -4.475235082390749 -5.0988004878964155 10.946078948448871" Properties=species:S:1:pos:R:3 unique_starting_index=18 config_type=initial n_minim_iter=7 stress="0.0008009589232333385 0.0004108287835058211 -0.001167261092060884 0.0004108287835058211 0.002892341171232278 -0.001188146269863949 -0.001167261092060884 -0.001188146269863949 -0.0011950078590016258" pbc="T T T"
Si       0.40049574       9.51147448      -0.67776734
Si      -0.94043744      -0.64699518       5.59030277
Si      -3.84128891      -3.55509214       9.78454825
Si       0.15724493      -2.80264771       8.86513381
Si      -5.23115270      -0.30801766       9.11222664
Si       4.07068926       2.12416136      -0.03213332
Si       2.21502980       0.70730924       0.35506304
Si      -1.75715887       1.72590082       8.18652167
Si      -1.75553256      -3.60608728       9.39851976
Si      -2.31950210       1.24746820       5.89803449
Si       1.36792714      -0.20397984       2.74872486
Si      -2.68541060       3.66993743       5.01531196
Si      -2.92221785      -2.25123990       6.35136670
Si      -0.71920530       7.10538661      -1.03063551
Si       1.42936949       1.51102108       4.00196358
Si       1.08078472       7.88453297      -1.85217280
Si      -0.76427346      -1.16516391       3.19401824
Si       2.70461441      -4.86930483       6.37290747
Si      -0.16858835       2.35033677       2.89518203
Si      -3.01326235       2.93549937       6.97869755
Si      -1.09176301       4.19015184       3.43747787
Si      -1.61630216      -2.01137355       8.00460369
22
Lattice="5.570702960119948 -0.6512518518907001 -1.3269813039522382 -2.3946280212518185 10.892916379522411 -1.988627022919629 -4.469689476004905 -5.091528090211573 10.950226203257534" Properties=species:S:1:pos:R:3 unique_starting_index=18 config_type=initial n_minim_iter=8 stress="0.0003653499766447611 -0.0012786059311470492 0.0003880632898604825 -0.0012786059311470492 -0.0019449822980734078 0.0007024649448697817 0.0003880632898604825 0.0007024649448697817 -0.0009330206228383247" pbc="T T T"
Si       0.39481799       9.50721770      -0.67601887
Si      -0.93954875      -0.64652421       5.59384389
Si      -3.83600776      -3.54930420       9.78908805
Si       0.15867457      -2.80006985       8.87017751
Si      -5.22886730      -0.30298527       9.11499680
Si       4.06898115       2.12120285      -0.03030364
Si       2.21405395       0.70695716       0.35364331
Si      -1.75866845       1.72832335       8.19055978
Si      -1.74993905      -3.59992963       9.40083811
Si      -2.31760318       1.25053284       5.90303377
Si       1.36844446      -0.20372104       2.75061995
Si      -2.68707677       3.66944017       5.01763727
Si      -2.91961672      -2.24881050       6.35399714
Si      -0.72286981       7.10070951      -1.02890199
Si       1.42906594       1.51048743       4.00632011
Si       1.07853269       7.88092699      -1.84861271
Si      -0.76357943      -1.16377408       3.19682142
Si       2.70785351      -4.86568135       6.37490970
Si      -0.16724813       2.35059896       2.89612786
Si      -3.01368612       2.93756531       6.98221746
Si      -1.09421869       4.18804359       3.43810886
Si      -1.61353833      -2.00746819       8.00826373
22
Lattice="5.5659946281327315 -0.6493546112626523 -1.3287913767258093 -2.3883612391129643 10.897378195274246 -1.9911656211289406 -4.469640908701568 -5.097068243296774 10.959395487366555" Properties=species:S:1:pos:R:3 unique_starting_index=18 config_type=initial n_minim_iter=9 stress="-0.004478096138193473 0.0012415406996838076 -0.0016692496051381538 0.0012415406996838076 -0.0003397960108729839 -5.979658464601538e-06 -0.0016692496051381538 -5.979658464601538e-06 0.00359057178789861" pbc="T T T"
Si       0.39724924       9.51259174      -0.67803021
Si      -0.94038572      -0.64930287       5.59865657
Si      -3.83443414      -3.55379797       9.79742158
Si       0.15589559      -2.80278733       8.87692228
Si      -5.22716734      -0.30648734       9.12134140
Si       4.06674078       2.12356897      -0.03085428
Si       2.21242509       0.70859119       0.35224060
Si      -1.76003379       1.72780440       8.19575354
Si      -1.75068535      -3.60274366       9.40719289
Si      -2.31488651       1.24973703       5.90874108
Si       1.36724143      -0.20348855       2.75264660
Si      -2.68528865       3.66890645       5.02035338
Si      -2.91936860      -2.25311397       6.35938616
Si      -0.71956518       7.10301023      -1.03015021
Si       1.42692321       1.51065148       4.00963402
Si       1.08215701       7.88599127      -1.84943796
Si      -0.76442822      -1.16528428       3.20052801
Si       2.70371666      -4.86709539       6.37908278
Si      -0.16505019       2.35190707       2.89707069
Si      -3.01215699       2.93754888       6.98745933
Si      -1.09339512       4.18775134       3.43831901
Si      -1.61397800      -2.00962287       8.01413759
22
Lattice="5.566141562561564 -0.6489332868243408 -1.3254072974070785 -2.3881547503903424 10.903256547219634 -1.9912742315570675 -4.466617288992355 -5.1013569283523275 10.948410835724728" Properties=species:S:1:pos:R:3 unique_starting_index=18 config_type=initial n_minim_iter=10 stress="-0.001438644899603427 0.0004334375843484319 2.3996226178141996e-05 0.0004334375843484319 -0.0010494275709229666 0.00045525189997834385 2.3996226178141996e-05 0.00045525189997834385 -0.002618170127346842" pbc="T T T"
Si       0.39670565       9.51938987      -0.67825906
Si      -0.93924924      -0.65276281       5.59461385
Si      -3.82941629      -3.55713735       9.78815456
Si       0.15946096      -2.80508434       8.86943197
Si      -5.22643631      -0.30868355       9.10959912
Si       4.06805259       2.12497370      -0.02886137
Si       2.21311138       0.71033802       0.35037180
Si      -1.76055840       1.72864563       8.18665282
Si      -1.74650248      -3.60437805       9.39721115
Si      -2.30989231       1.24996943       5.90508888
Si       1.36939516      -0.20308601       2.75147130
Si      -2.68489195       3.66919095       5.01357269
Si      -2.91808136      -2.25767012       6.35312290
Si      -0.71890237       7.10543951      -1.02962322
Si       1.42689377       1.51004967       4.00817975
Si       1.08474963       7.89185397      -1.84492248
Si      -0.76437523      -1.16673776       3.19970729
Si       2.70779363      -4.86857467       6.37389835
Si      -0.16052797       2.35438647       2.89279036
Si      -3.01113770       2.93988774       6.98027828
Si      -1.09356965       4.18703736       3.43114969
Si      -1.61082471      -2.01055534       8.00586317
22
Lattice="5.56024943339138 -0.6463926137283751 -1.3251531010400273 -2.380734152159137 10.906741379910846 -1.9928026929165479 -4.464026068441716 -5.106786684431299 10.949671521478825" Properties=species:S:1:pos:R:3 unique_starting_index=18 config_type=initial n_minim_iter=11 stress="-0.0031286736127073885 0.0014035980644599253 -0.0008824230076808786 0.0014035980644599253 -0.003387469088375464 0.0003964818963703844 -0.0008824230076808786 0.0003964818963703844 -0.002358501778698305" pbc="T T T"
Si       0.39657528       9.52929297      -0.67843712
Si      -0.94077626      -0.66111699       5.59860686
Si      -3.82379000      -3.56105904       9.79101363
Si       0.16336219      -2.80500757       8.86812800
Si      -5.22753531      -0.31562892       9.10635564
Si       4.06467952       2.12648059      -0.02871432
Si       2.21150704       0.71385673       0.34610762
Si      -1.76538743       1.72828529       8.18531883
Si      -1.74053457      -3.60390461       9.39695078
Si      -2.30254707       1.25253284       5.91198876
Si       1.37058942      -0.20127200       2.75376289
Si      -2.68523041       3.66535404       5.01211342
Si      -2.91687807      -2.26731091       6.35508445
Si      -0.71158619       7.10509995      -1.03040365
Si       1.42516406       1.50499697       4.01466325
Si       1.09084528       7.89677549      -1.83836191
Si      -0.76709816      -1.16900014       3.20607118
Si       2.70732587      -4.86661592       6.37072945
Si      -0.15048161       2.35932443       2.88839595
Si      -3.01122692       2.94417053       6.98011168
Si      -1.09562144       4.18087171       3.42175906
Si      -1.60776667      -2.00911928       8.00335695
22
Lattice="5.557598663193014 -0.6428499792235915 -1.320725604745906 -2.3707523962775996 10.931434776583865 -1.9899954736414645 -4.462681338230699 -5.122719073261131 10.931197302027078" Properties=species:S:1:pos:R:3 unique_starting_index=18 config_type=initial n_minim_iter=12 stress="-0.0017526050905640653 0.0031490644109330567 -0.0009046418444556904 0.0031490644109330567 -0.0012255807892332276 0.0008174306766313206 -0.0009046418444556904 0.0008174306766313206 -0.0036314345929051306" pbc="T T T"
Si       0.40193021       9.55787790      -0.67651473
Si      -0.94153912      -0.67095634       5.59394313
Si      -3.81864262      -3.57222649       9.77625682
Si       0.17129530      -2.80756376       8.85226297
Si      -5.23039921      -0.32435756       9.08658836
Si       4.06636932       2.13465131      -0.02630493
Si       2.21190584       0.71947517       0.34347813
Si      -1.76595830       1.73112762       8.17155063
Si      -1.73657749      -3.60963541       9.37631350
Si      -2.29503349       1.25982146       5.90984228
Si       1.37379736      -0.20035790       2.75127403
Si      -2.68474873       3.66820734       5.00239612
Si      -2.91680174      -2.28246113       6.34510016
Si      -0.70139205       7.11888209      -1.02866770
Si       1.42765944       1.50487728       4.01782206
Si       1.09896689       7.92065393      -1.82607082
Si      -0.77049792      -1.17335072       3.20737822
Si       2.71072286      -4.87132697       6.35917276
Si      -0.13590880       2.36835195       2.87883391
Si      -3.00995981       2.95520772       6.96959443
Si      -1.09682190       4.18506131       3.40733629
Si      -1.60172911      -2.01147373       7.98857632
22
Lattice="5.549429540771888 -0.6457120171932194 -1.3133961022038847 -2.369393577082119 10.981096585624769 -1.9885688384278113 -4.448862337667811 -5.147361206849499 10.902211281613654" Properties=species:S:1:pos:R:3 unique_starting_index=18 config_type=initial n_minim_iter=13 stress="0.005533777595767889 0.002265386221044961 -0.0020948224697670634 0.002265386221044961 0.00341296964983497 0.003072355808708613 -0.0020948224697670634 0.003072355808708613 0.0014440420462163946" pbc="T T T"
Si       0.39453005       9.61291059      -0.67666609
Si      -0.94582937      -0.69703881       5.59160110
Si      -3.79990139      -3.58931850       9.75340408
Si       0.19430268      -2.81197708       8.82686033
Si      -5.24297645      -0.33611023       9.04827433
Si       4.06403252       2.14110843      -0.02704449
Si       2.21127775       0.72770694       0.33411740
Si      -1.77209678       1.73557260       8.14602184
Si      -1.71651783      -3.61483587       9.34551006
Si      -2.27812937       1.28391937       5.91717195
Si       1.38005167      -0.20347358       2.74773841
Si      -2.69776143       3.67035018       4.97813594
Si      -2.90979886      -2.31351664       6.33281888
Si      -0.69431790       7.14107018      -1.02708146
Si       1.42368920       1.49986534       4.02795253
Si       1.10054327       7.97033787      -1.80387872
Si      -0.78034946      -1.18120477       3.21661531
Si       2.72403859      -4.88538096       6.33141511
Si      -0.09735682       2.38380937       2.85610653
Si      -3.01318005       2.97829566       6.96541686
Si      -1.11448480       4.19179089       3.37305420
Si      -1.58013016      -2.01228468       7.95904531
22
Lattice="5.543045297459347 -0.6467718958730841 -1.3068502092523249 -2.369612130862821 11.002434973993353 -1.9927996559093577 -4.435602385509564 -5.161696539529334 10.885295725091646" Properties=species:S:1:pos:R:3 unique_starting_index=18 config_type=initial n_minim_iter=14 stress="0.0036644190558026667 0.002274766478660014 -5.9403526042600146e-05 0.002274766478660014 0.0007805810795877452 0.0012628762314808098 -5.9403526042600146e-05 0.0012628762314808098 0.0012874112801618417" pbc="T T T"
Si       0.38913061       9.63949865      -0.67854649
Si      -0.94606383      -0.71216314       5.58927628
Si      -3.78514159      -3.60031385       9.73871897
Si       0.20918488      -2.81852420       8.81504125
Si      -5.24595051      -0.34364704       9.02386202
Si       4.06488826       2.14356590      -0.02409504
Si       2.21078307       0.73094679       0.33036585
Si      -1.76929955       1.73290303       8.13056052
Si      -1.70363907      -3.61941685       9.32613060
Si      -2.26662934       1.29393622       5.91812394
Si       1.38349859      -0.20500258       2.74709998
Si      -2.70224254       3.66743364       4.96350082
Si      -2.90185780      -2.33026011       6.32538932
Si      -0.69350109       7.14889253      -1.02857996
Si       1.42204008       1.49239859       4.03133029
Si       1.10143001       7.99135125      -1.79842298
Si      -0.78397714      -1.18570646       3.22045271
Si       2.73247699      -4.89363342       6.31876067
Si      -0.07851037       2.39225082       2.84178492
Si      -3.01061186       2.98673415       6.95856985
Si      -1.12092692       4.19078541       3.35268054
Si      -1.56360970      -2.01524999       7.94193566
22
Lattice="5.539869191491039 -0.6512483637117364 -1.3153890137215145 -2.3723087156081646 11.020264390860987 -1.9945365687651735 -4.443415257245624 -5.16991152538052 10.898869130188565" Properties=species:S:1:pos:R:3 unique_starting_index=18 config_type=initial n_minim_iter=15 stress="-0.002036528866597896 -0.006333654775936137 0.0012861011492898936 -0.006333654775936137 0.0033038757567509765 0.0020542289299431285 0.0012861011492898936 0.0020542289299431285 0.0031422939704768317" pbc="T T T"
Si       0.38290617       9.66402881      -0.68079974
Si      -0.96480055      -0.72590006       5.60268251
Si      -3.79259470      -3.60925705       9.74475587
Si       0.20705445      -2.83318209       8.82929699
Si      -5.27171392      -0.33015680       9.02129856
Si       4.07257009       2.14164621      -0.02965210
Si       2.21422341       0.73188840       0.32210072
Si      -1.77162079       1.72737067       8.13537937
Si      -1.71380344      -3.61711091       9.32865918
Si      -2.26840061       1.30478725       5.93328261
Si       1.37675642      -0.20822726       2.75024364
Si      -2.72441444       3.66169615       4.97230322
Si      -2.90403207      -2.34120891       6.33630288
Si      -0.69627466       7.15471903      -1.03114556
Si       1.40402874       1.47655236       4.04166471
Si       1.09098470       8.01067265      -1.79992212
Si      -0.79706075      -1.18712564       3.23025968
Si       2.72587632      -4.90566647       6.30809919
Si      -0.06654119       2.41212063       2.83126083
Si      -3.01939276       3.00032540       6.97206198
Si      -1.13242162       4.18629180       3.34297979
Si      -1.56225309      -2.02395562       7.94251367
22
Lattice="5.548481578961712 -0.650751856535481 -1.3231621051408895 -2.3764449665985676 11.001209921738534 -2.002935437461593 -4.460850333377895 -5.16775421728044 10.919618378125309" Properties=species:S:1:pos:R:3 unique_starting_index=18 config_type=initial n_minim_iter=16 stress="0.004197300017636741 -0.005006076624808458 0.002608291417445256 -0.005006076624808458 0.001619688672401172 0.00014504669402066377 0.002608291417445256 0.00014504669402066377 0.0031671228358713657" pbc="T T T"
Si       0.38114333       9.64860173      -0.68837081
Si      -0.97561137      -0.72731452       5.61062976
Si      -3.80959564      -3.61179346       9.75836291
Si       0.19512120      -2.83821916       8.84298804
Si      -5.28731360      -0.32658129       9.03486882
Si       4.07891116       2.13596786      -0.03680662
Si       2.21926353       0.72921189       0.31862832
Si      -1.77786711       1.71721100       8.14498918
Si      -1.73221029      -3.62140515       9.34459376
Si      -2.28087135       1.29810347       5.93853236
Si       1.37225115      -0.21132901       2.75205746
Si      -2.73779995       3.64866421       4.98184177
Si      -2.91589383      -2.33887475       6.34467218
Si      -0.70019234       7.14267192      -1.03782585
Si       1.39840397       1.46939886       4.04144391
Si       1.08920198       7.99375218      -1.81684232
Si      -0.80095843      -1.18643723       3.23355511
Si       2.72179794      -4.90456482       6.31748678
Si      -0.06965435       2.40889224       2.83465035
Si      -3.02781937       2.98738617       6.98020718
Si      -1.13576949       4.17601428       3.34722194
Si      -1.57154277      -2.02960101       7.95557506
22
Lattice="5.544206931439951 -0.6535618293924158 -1.3283399490700867 -2.381293144809112 10.996304307120745 -2.0133135096033086 -4.4608336761836895 -5.170452268842251 10.938420329003076" Properties=species:S:1:pos:R:3 unique_starting_index=18 config_type=initial n_minim_iter=17 stress="-0.0006386968464459016 -0.00838442404356183 0.002899512468210718 -0.00838442404356183 -0.00027181612647882207 -0.0006495115820866347 0.002899512468210718 -0.0006495115820866347 0.0017050174810925107" pbc="T T T"
Si       0.37248569       9.64213710      -0.70031096
Si      -0.98381945      -0.73225188       5.61981188
Si      -3.81491355      -3.61906254       9.77036848
Si       0.18605003      -2.84608158       8.85421936
Si      -5.29241883      -0.32274748       9.04419787
Si       4.07404607       2.13023535      -0.04133892
Si       2.22048381       0.72754142       0.31329929
Si      -1.78133491       1.71182608       8.15354874
Si      -1.73418976      -3.62969158       9.35870559
Si      -2.28432896       1.29195762       5.94199021
Si       1.36576573      -0.21797177       2.75365051
Si      -2.74528118       3.64125665       4.98972393
Si      -2.91721185      -2.34034625       6.35200262
Si      -0.70476387       7.13860721      -1.04563202
Si       1.38864333       1.45973156       4.04848706
Si       1.08004742       7.99015379      -1.82992399
Si      -0.80022510      -1.18758162       3.23905916
Si       2.71826365      -4.91008097       6.32770162
Si      -0.06552677       2.41035056       2.83736018
Si      -3.02938331       2.98279739       6.98761443
Si      -1.13926676       4.16943911       3.34844920
Si      -1.56693592      -2.03525661       7.96543480
22
Lattice="5.540878824750387 -0.6524002097581374 -1.3298678128209813 -2.384349605514063 10.980880816283666 -2.036477942865675 -4.456130199561877 -5.178812134446477 10.96804185827059" Properties=species:S:1:pos:R:3 unique_starting_index=18 config_type=initial n_minim_iter=18 stress="0.0016602739077139217 -4.573798522072035e-05 0.0021354495827008543 -4.573798522072035e-05 -0.0026138149188027976 -0.0019266953490477338 0.0021354495827008543 -0.0019266953490477338 -0.0022281063737147246" pbc="T T T"
Si       0.36669331       9.62404271      -0.72399791
Si      -0.99251662      -0.73875117       5.63448529
Si      -3.81708261      -3.63709883       9.78604233
Si       0.17872022      -2.85990872       8.87504904
Si      -5.28751806      -0.31698051       9.05619108
Si       4.07180676       2.12361906      -0.04126558
Si       2.22667725       0.72456983       0.31088283
Si      -1.77561745       1.70206413       8.16992941
Si      -1.73327973      -3.64221795       9.38338318
Si      -2.28546733       1.27467910       5.94163908
Si       1.35747988      -0.22998306       2.75815505
Si      -2.74876561       3.62594398       5.00074423
Si      -2.91102705      -2.34083427       6.36744552
Si      -0.70790510       7.13012776      -1.06207430
Si       1.38147064       1.44408703       4.06474566
Si       1.06979086       7.98003355      -1.85808371
Si      -0.79251525      -1.19004485       3.24604892
Si       2.71459878      -4.91886789       6.35041618
Si      -0.05350012       2.41010623       2.84404625
Si      -3.02007247       2.96566924       6.99700096
Si      -1.13634962       4.15985451       3.35564762
Si      -1.56360061      -2.05616725       7.98033214
22
Lattice="5.543220655434904 -0.6617865411751275 -1.3443618141283054 -2.4042499875061036 10.978291611714138 -2.0593793310745845 -4.467951898902969 -5.186702017849649 11.013487565518178" Properties=species:S:1:pos:R:3 unique_starting_index=18 config_type=initial n_minim_iter=19 stress="0.0008380935429299614 -0.0008337180907890321 0.0036696166969156264 -0.0008337180907890321 -0.004938574053723659 -0.003377788007319354 0.0036696166969156264 -0.003377788007319354 -0.002142025457874214" pbc="T T T"
Si       0.34081592       9.62123775      -0.75255087
Si      -1.02216589      -0.75781345       5.66137567
Si      -3.82922942      -3.65668449       9.81300538
Si       0.17405697      -2.88125075       8.90116262
Si      -5.31969344      -0.30214758       9.07375491
Si       4.07114020       2.10645129      -0.05022553
Si       2.23525601       0.72089283       0.29553537
Si      -1.80013623       1.69687978       8.18937717
Si      -1.74812052      -3.64875346       9.41548456
Si      -2.29852935       1.27117258       5.96013420
Si       1.34403851      -0.24635214       2.76384002
Si      -2.78347246       3.60948991       5.01458031
Si      -2.91994858      -2.34992835       6.38931316
Si      -0.72010678       7.12315582      -1.07983282
Si       1.35624750       1.41406577       4.09318131
Si       1.05165104       7.97858637      -1.88384072
Si      -0.79747079      -1.19368668       3.26461779
Si       2.71133572      -4.93575252       6.36300521
Si      -0.03035260       2.41801386       2.83896308
Si      -3.03357083       2.95302491       7.01600183
Si      -1.16027292       4.14980312       3.35509350
Si      -1.56825326      -2.07533068       7.99997311
22
Lattice="5.532419886409066 -0.653288855126116 -1.3652377879812991 -2.3829235948709844 11.01216349179971 -2.106461209551578 -4.50543115167778 -5.258577514120178 11.058902949309164" Properties=species:S:1:pos:R:3 unique_starting_index=18 config_type=initial n_minim_iter=20 stress="0.014195664868897945 0.0032215317060400026 0.005320459029501598 0.0032215317060400026 0.0012532870320837686 -0.004005832944141192 0.005320459029501598 -0.004005832944141192 0.0015469815783531477" pbc="T T T"
Si       0.34146877       9.66195460      -0.81329957
Si      -1.08042349      -0.81115512       5.69060395
Si      -3.86341288      -3.73839251       9.82893192
Si       0.15524694      -2.94285920       8.91962697
Si      -5.36679334      -0.31037961       9.06781524
Si       4.07623311       2.10151617      -0.07132101
Si       2.24809483       0.72599306       0.26807962
Si      -1.82783985       1.66858558       8.19830906
Si      -1.78108106      -3.69050496       9.44173061
Si      -2.30781594       1.24855832       5.96765301
Si       1.31560539      -0.27066740       2.76722606
Si      -2.83548748       3.56602955       5.01258269
Si      -2.94667158      -2.40236172       6.40155358
Si      -0.70806471       7.13755886      -1.11596055
Si       1.31331712       1.37262336       4.11895627
Si       1.05830236       8.01933896      -1.93424428
Si      -0.81740481      -1.21300779       3.28804033
Si       2.67514795      -4.98157886       6.36123185
Si       0.02859695       2.44340973       2.81241403
Si      -3.04973330       2.93429329       7.01950553
Si      -1.18313408       4.13412187       3.33223485
Si      -1.58283830      -2.13685703       8.01094658
22
Lattice="5.5267105552203635 -0.6492687183728718 -1.3728650809569283 -2.3712740767800615 11.02202262007626 -2.116899747043714 -4.517835068820651 -5.278215425243087 11.075261386774404" Properties=species:S:1:pos:R:3 unique_starting_index=18 config_type=initial n_minim_iter=21 stress="0.021794363634986266 0.00021856143395729874 0.007918718517082868 0.00021856143395729874 0.0039388251513985785 -0.004698305322744153 0.007918718517082868 -0.004698305322744153 0.007317783354657516" pbc="T T T"
Si       0.34379767       9.67933549      -0.82961066
Si      -1.10550121      -0.83101778       5.70574150
Si      -3.87558424      -3.76561805       9.83405840
Si       0.15146425      -2.95708844       8.92956057
Si      -5.38451626      -0.30650878       9.06554378
Si       4.08456268       2.10043159      -0.07336982
Si       2.25433229       0.72922335       0.25682342
Si      -1.83605029       1.66449617       8.20704604
Si      -1.79098018      -3.70063220       9.44929472
Si      -2.30776031       1.24689189       5.97654293
Si       1.30420475      -0.27901689       2.77086361
Si      -2.85947685       3.54849859       5.01202615
Si      -2.95444183      -2.42035875       6.40767160
Si      -0.69843321       7.14183083      -1.12579366
Si       1.29589707       1.36077940       4.13425895
Si       1.06090253       8.03307155      -1.94406072
Si      -0.82701256      -1.21823121       3.29947745
Si       2.66282426      -4.99118484       6.35941753
Si       0.05898432       2.46279766       2.80311737
Si      -3.05194250       2.93178592       7.02805113
Si      -1.19017184       4.12505657       3.32540371
Si      -1.58724005      -2.15130118       8.00993580
