10
Lattice="3.45058 -2.112870876100937e-16 3.131990582765216e-64 2.916275915745576e-16 4.76264 1.2749491125879098e-62 1.7012672889609493e-31 -1.0417257699600575e-47 12.720929999999997" Properties=species:S:1:pos:R:3 unique_starting_index=45 config_type=initial n_minim_iter=1 pbc="T T T"
Si       2.75244968       1.99066445      11.28686903
Si       0.69813032       2.77197555      11.28686903
Si       0.69813032       4.37198445      11.28686903
Si       2.75244968       0.39065555      11.28686903
Si       2.42360320       4.37200017       4.84370145
Si       1.02697680       0.39063983       4.84370145
Si       1.02697680       1.99068017       4.84370145
Si       2.42360320       2.77195983       4.84370145
Si       1.23495603       3.57198000       7.95532361
Si       2.21562397       1.19066000       7.95532361
10
Lattice="3.467859473041615 -2.0952817514355696e-16 1.4258433865767098e-33 2.9981161777503827e-16 4.832797619749008 2.270952939626582e-32 1.7623519591822555e-31 6.06567646899282e-32 12.75453663433697" Properties=species:S:1:pos:R:3 unique_starting_index=45 config_type=initial n_minim_iter=2 pbc="T T T"
Si       2.76448124       2.02090101      11.31676088
Si       0.70337824       2.81189661      11.31676088
Si       0.70337824       4.43729982      11.31676088
Si       2.76448124       0.39549780      11.31676088
Si       2.43755706       4.43734259       4.85636486
Si       1.03030241       0.39545503       4.85636486
Si       1.03030241       2.02094378       4.85636486
Si       2.43755706       2.81185384       4.85636486
Si       1.24098656       3.62459821       7.97645847
Si       2.22687291       1.20819940       7.97645847
10
Lattice="3.660935279685989 -1.8935189349496286e-16 1.7354397324257683e-32 3.932398234940116e-16 5.636820908460653 -3.685543883448163e-31 2.4447233233753946e-31 -9.678035289086189e-31 13.131322240194665" Properties=species:S:1:pos:R:3 unique_starting_index=45 config_type=initial n_minim_iter=3 pbc="T T T"
Si       2.89873632       2.36845655      11.65190694
Si       0.76219896       3.26836436      11.65190694
Si       0.76219896       5.18686701      11.65190694
Si       2.89873632       0.44995390      11.65190694
Si       2.59347653       5.18718310       4.99831574
Si       1.06745875       0.44963781       4.99831574
Si       1.06745875       2.36877265       4.99831574
Si       2.59347653       3.26804826       4.99831574
Si       1.30871527       4.22761568       8.21344992
Si       2.35222001       1.40920523       8.21344992
10
Lattice="4.323050196451767 -2.329860607983228e-16 1.408936880781411e-32 4.845066561423657e-16 7.133804794564863 2.1291854337162267e-30 2.611138360658155e-31 5.269831891386241e-30 13.45692789218025" Properties=species:S:1:pos:R:3 unique_starting_index=45 config_type=initial n_minim_iter=4 pbc="T T T"
Si       3.38775487       3.00593281      11.94140865
Si       0.93529533       4.12787198      11.94140865
Si       0.93529533       6.57283521      11.94140865
Si       3.38775487       0.56096959      11.94140865
Si       3.09755394       6.57366651       5.12079482
Si       1.22549625       0.56013829       5.12079482
Si       1.22549625       3.00676411       5.12079482
Si       3.09755394       4.12704069       5.12079482
Si       1.54335429       5.35035360       8.41887124
Si       2.77969591       1.78345120       8.41887124
10
Lattice="4.121414207558294 -4.933100903550453e-16 1.411325633096925e-32 8.258022051060928e-17 6.753238137566397 -1.0268603745031226e-15 1.9197759562153273e-31 -2.586733227573766e-15 13.248982344352092" Properties=species:S:1:pos:R:3 unique_starting_index=45 config_type=initial n_minim_iter=5 pbc="T T T"
Si       3.22278019       2.83947081      11.75608599
Si       0.89863402       3.91376732      11.75608599
Si       0.89863402       6.21608988      11.75608599
Si       3.22278019       0.53714825      11.75608599
Si       2.95959595       6.21827352       5.04211535
Si       1.16181826       0.53496462       5.04211535
Si       1.16181826       2.84165445       5.04211535
Si       2.95959595       3.91158369       5.04211535
Si       1.47026277       5.06492860       8.28946800
Si       2.65115144       1.68830953       8.28946800
10
Lattice="3.7727356851136506 -4.967962373794439e-16 2.482564041932088e-34 2.792792825670369e-17 6.315988063686427 -1.089835486127973e-15 1.3078959524822922e-31 -2.6229652595503605e-15 12.869177663010754" Properties=species:S:1:pos:R:3 unique_starting_index=45 config_type=initial n_minim_iter=6 pbc="T T T"
Si       2.93579729       2.65387807      11.41741536
Si       0.83693840       3.66211000      11.41741536
Si       0.83693840       5.81187210      11.41741536
Si       2.93579729       0.50411597      11.41741536
Si       2.72388674       5.81459362       4.89815921
Si       1.04884895       0.50139444       4.89815921
Si       1.04884895       2.65659959       4.89815921
Si       2.72388674       3.65938847       4.89815921
Si       1.34267692       4.73699105       8.05399162
Si       2.43005876       1.57899702       8.05399162
10
Lattice="3.9288410872066843 -5.231095866789459e-16 -9.094035985172675e-33 1.4778692698001642e-17 6.520293112843286 -1.0404851869262204e-15 1.215968655326012e-31 -2.6281975185347497e-15 12.789835355523357" Properties=species:S:1:pos:R:3 unique_starting_index=45 config_type=initial n_minim_iter=7 pbc="T T T"
Si       3.04412335       2.73364006      11.34651173
Si       0.88471773       3.78665305      11.34651173
Si       0.88471773       5.99378662      11.34651173
Si       3.04412335       0.52650650      11.34651173
Si       2.84941915       5.99665453       4.86793424
Si       1.07942194       0.52363858       4.86793424
Si       1.07942194       2.73650798       4.86793424
Si       2.84941915       3.78378514       4.86793424
Si       1.39678464       4.89021983       8.00541281
Si       2.53205644       1.63007328       8.00541281
10
Lattice="3.891726279899594 -5.29413803957912e-16 -2.0122249972000843e-32 6.488248018227845e-18 6.524315407805318 -9.559180113672915e-16 1.0541853999675288e-31 -2.443496650261337e-15 12.645533085097162" Properties=species:S:1:pos:R:3 unique_starting_index=45 config_type=initial n_minim_iter=8 pbc="T T T"
Si       3.00844348       2.73416201      11.21776121
Si       0.88328280       3.79015339      11.21776121
Si       0.88328280       5.99631972      11.21776121
Si       3.00844348       0.52799569      11.21776121
Si       2.82930582       5.99958336       4.81315134
Si       1.06242046       0.52473205       4.81315134
Si       1.06242046       2.73742566       4.81315134
Si       2.82930582       3.78688975       4.81315134
Si       1.38223480       4.89323656       7.91627661
Si       2.50949148       1.63107885       7.91627661
10
Lattice="3.8696181663203646 -5.341798945213752e-16 -2.103404909326865e-32 2.6822591472154972e-18 6.548998805407304 -1.0277352867280232e-15 7.557939229699348e-32 -2.716167294880102e-15 12.416256278136947" Properties=species:S:1:pos:R:3 unique_starting_index=45 config_type=initial n_minim_iter=9 pbc="T T T"
Si       2.98149819       2.74212460      11.01321532
Si       0.88811998       3.80687420      11.01321532
Si       0.88811998       6.01662401      11.01321532
Si       2.98149819       0.53237480      11.01321532
Si       2.82271269       6.02030570       4.72610228
Si       1.04690547       0.52869311       4.72610228
Si       1.04690547       2.74580630       4.72610228
Si       2.82271269       3.80319251       4.72610228
Si       1.37242904       4.91174910       7.77462151
Si       2.49718913       1.63724970       7.77462151
10
Lattice="3.8440607234611943 -5.375651052660121e-16 -1.1666164743625684e-32 1.0121081840677805e-18 6.575631668629066 -1.2756709197121022e-15 2.4607388794972605e-32 -3.538848796598544e-15 12.028231165199026" Properties=species:S:1:pos:R:3 unique_starting_index=45 config_type=initial n_minim_iter=10 pbc="T T T"
Si       2.94945627       2.75011195      10.66710941
Si       0.89460445       3.82551971      10.66710941
Si       0.89460445       6.03792779      10.66710941
Si       2.94945627       0.53770388      10.66710941
Si       2.81558347       6.04202231       4.57885275
Si       1.02847725       0.53360936       4.57885275
Si       1.02847725       2.75420648       4.57885275
Si       2.81558347       3.82142519       4.57885275
Si       1.36068873       4.93172375       7.53461403
Si       2.48337199       1.64390792       7.53461403
10
Lattice="3.812192473446684 -5.409166563131722e-16 1.8609897499144553e-32 3.4012684257841624e-19 6.610651844738792 -1.721294486214154e-15 -3.6765386618442337e-32 -5.325982195318076e-15 10.890735342602916" Properties=species:S:1:pos:R:3 unique_starting_index=45 config_type=initial n_minim_iter=11 pbc="T T T"
Si       2.90121907       2.75777349       9.65315015
Si       0.91097340       3.85287836       9.65315015
Si       0.91097340       6.06309941       9.65315015
Si       2.90121907       0.54755243       9.65315015
Si       2.81352329       6.06807852       4.14730759
Si       0.99866918       0.54257333       4.14730759
Si       0.99866918       2.76275260       4.14730759
Si       2.81352329       3.84789925       4.14730759
Si       1.34438955       4.95798888       6.82949740
Si       2.46780292       1.65266296       6.82949740
10
Lattice="3.867703877340107 -5.393989072178775e-16 -1.40632542466599e-32 9.383247281825056e-20 6.589922400490107 -5.931362734801402e-16 1.4907915452010397e-31 -2.886596354355071e-15 10.1846034130221" Properties=species:S:1:pos:R:3 unique_starting_index=45 config_type=initial n_minim_iter=12 pbc="T T T"
Si       2.93298038       2.74025082       9.02370193
Si       0.93472350       3.84967158       9.02370193
Si       0.93472350       6.03521202       9.02370193
Si       2.93298038       0.55471038       9.02370193
Si       2.86041733       6.04563118       3.87979188
Si       1.00728654       0.54429122       3.87979188
Si       1.00728654       2.75066998       3.87979188
Si       2.86041733       3.83925242       3.87979188
Si       1.36397873       4.94244180       6.39103110
Si       2.50372515       1.64748060       6.39103110
10
Lattice="3.9535874083128886 -5.484686283819785e-16 -9.296940264333922e-32 3.24831501903169e-20 6.700170709331695 -2.891477305105444e-15 -8.230269058089785e-31 -9.43477009770639e-15 9.889955143677962" Properties=species:S:1:pos:R:3 unique_starting_index=45 config_type=initial n_minim_iter=13 pbc="T T T"
Si       2.98945382       2.77979015       8.76098766
Si       0.96413359       3.92038056       8.76098766
Si       0.96413359       6.12987550       8.76098766
Si       2.98945382       0.57029521       8.76098766
Si       2.93225909       6.14090730       3.76857605
Si       1.02132831       0.55926341       3.76857605
Si       1.02132831       2.79082194       3.76857605
Si       2.93225909       3.90934877       3.76857605
Si       1.39659632       5.02512803       6.20737830
Si       2.55699109       1.67504268       6.20737830
10
Lattice="3.9022817452479712 -5.570401718220876e-16 1.2289268235720158e-30 1.0001863555608985e-20 6.804680037489069 -3.259545026314855e-16 4.8356982767037545e-30 -2.641919692536552e-15 9.814721154571219" Properties=species:S:1:pos:R:3 unique_starting_index=45 config_type=initial n_minim_iter=14 pbc="T T T"
Si       2.94666026       2.82440646       8.69356687
Si       0.95562149       3.98027358       8.69356687
Si       0.95562149       6.22674648       8.69356687
Si       2.94666026       0.57793356       8.69356687
Si       2.90025656       6.23710467       3.74078043
Si       1.00202518       0.56757537       3.74078043
Si       1.00202518       2.83476465       3.74078043
Si       2.90025656       3.96991539       3.74078043
Si       1.38022434       5.10351003       6.15996335
Si       2.52205741       1.70117001       6.15996335
10
Lattice="3.93715208651087 -5.583082375322148e-16 -7.896370535221157e-30 1.5953420390857578e-21 6.8200957883835365 -4.708468187784405e-16 -2.876005980814452e-29 -3.0310068996642605e-15 9.847456277985708" Properties=species:S:1:pos:R:3 unique_starting_index=45 config_type=initial n_minim_iter=15 pbc="T T T"
Si       2.97125072       2.82825949       8.72218905
Si       0.96590136       3.99183630       8.72218905
Si       0.96590136       6.23830738       8.72218905
Si       2.97125072       0.58178841       8.72218905
Si       2.92896122       6.24818330       3.75369876
Si       1.00819087       0.57191249       3.75369876
Si       1.00819087       2.83813541       3.75369876
Si       2.92896122       3.98196038       3.75369876
Si       1.39333773       5.11507184       6.18037247
Si       2.54381436       1.70502395       6.18037247
10
Lattice="3.9225925314375 -5.571664344388687e-16 4.6145279061788406e-29 2.747886317371416e-22 6.806136270045833 -6.490886761161987e-16 1.7050865721816426e-28 -3.5049242170540437e-15 9.820975994250631" Properties=species:S:1:pos:R:3 unique_starting_index=45 config_type=initial n_minim_iter=16 pbc="T T T"
Si       2.95945967       2.82173346       8.69848525
Si       0.96313286       3.98440281       8.69848525
Si       0.96313286       6.22480160       8.69848525
Si       2.95945967       0.58133467       8.69848525
Si       2.91944373       6.23459300       3.74388070
Si       1.00314880       0.57154327       3.74388070
Si       1.00314880       2.83152486       3.74388070
Si       2.91944373       3.97461141       3.74388070
Si       1.38857492       5.10460220       6.16370033
Si       2.53401761       1.70153407       6.16370033
