16
Lattice="8.328306125936358 0.8864360150055471 0.0005661133849216011 2.54485629135353 8.004940376048978 0.6642959056508015 2.785762560291705 3.1382853583608736 9.640565710977066" Properties=species:S:1:pos:R:3 unique_starting_index=30 config_type=initial n_minim_iter=1 energy=-2618.418098269775 free_energy=-2618.418098269775 pbc="T T T"
Si       8.00612335       6.62062559       6.60949969
Si       5.65280163       5.40903616       3.69592804
Si       3.87001227       6.20594773       2.92289091
Si       9.78891271       5.82371402       7.38253682
Si       8.01273440       5.67310458       8.50843375
Si       5.64619058       6.35655717       1.79699398
Si       5.76171170       5.36983580      -0.07220494
Si       7.89721328       6.65982595      10.37763267
Si       4.29335281       6.39746077       4.99100487
Si       9.36557216       5.63220098       5.31442286
Si      10.66400898       6.93405646       4.26671594
Si       2.99491600       5.09560529       6.03871179
Si       3.78803594       4.50987764       4.18161094
Si       9.87088904       7.51978411       6.12381679
Si       6.20241350       8.38745423       1.59216228
Si       7.45651148       3.64220752       8.71326545
16
Lattice="8.328159512183058 0.8853984111889514 0.0005240469329978917 2.543884807306913 8.00424464764945 0.665219848880704 2.7851918559182853 3.139056226824165 9.639510792259639" Properties=species:S:1:pos:R:3 unique_starting_index=30 config_type=initial n_minim_iter=2 stress="-0.0005187793913504039 2.966240091460309e-05 0.00011272255253416729 2.966240091460309e-05 -0.0002633258690504692 -7.111559937006783e-05 0.00011272255253416729 -7.111559937006783e-05 -0.0006171504687719166" pbc="T T T"
Si       8.00515456       6.62017659       6.60929319
Si       5.65208162       5.40852270       3.69596150
Si       3.86919496       6.20548712       2.92321543
Si       9.78804121       5.82321216       7.38203926
Si       8.01187679       5.67297258       8.50777527
Si       5.64535939       6.35572670       1.79747942
Si       5.76104058       5.36880182      -0.07156990
Si       7.89619559       6.65989747      10.37682459
Si       4.29245579       6.39725196       4.99107195
Si       9.36478038       5.63144733       5.31418274
Si      10.66305335       6.93292352       4.26682035
Si       2.99418283       5.09577577       6.03843434
Si       3.78742548       4.50967709       4.18150642
Si       9.86981070       7.51902220       6.12374827
Si       6.20135461       8.38643298       1.59295937
Si       7.45588157       3.64226631       8.71229532
16
Lattice="8.328722667513569 0.8850973177277596 0.0003884725748897362 2.543746785158077 8.004337307848534 0.6655838404093668 2.7850646914716215 3.139480008513299 9.640032622285728" Properties=species:S:1:pos:R:3 unique_starting_index=30 config_type=initial n_minim_iter=3 stress="0.0004598372221848259 -0.0002799253752283415 -0.00014495326994453877 -0.0002799253752283415 0.00024790812415642074 0.0002519769731295858 -0.00014495326994453877 0.0002519769731295858 0.0005444940882801258" pbc="T T T"
Si       8.00530864       6.62033727       6.60976846
Si       5.65222550       5.40857737       3.69623647
Si       3.86915901       6.20557842       2.92355088
Si       9.78837514       5.82333622       7.38245405
Si       8.01207420       5.67321167       8.50825680
Si       5.64545994       6.35570296       1.79774814
Si       5.76125081       5.36869355      -0.07143145
Si       7.89628333       6.66022108      10.37743639
Si       4.29240632       6.39748374       4.99155489
Si       9.36512783       5.63143089       5.31445004
Si      10.66345605       6.93283741       4.26708778
Si       2.99407809       5.09607722       6.03891716
Si       3.78744304       4.50977957       4.18181055
Si       9.87009111       7.51913507       6.12419438
Si       6.20142679       8.38644547       1.59336181
Si       7.45610736       3.64246916       8.71264313
16
Lattice="8.328658403133465 0.8856526847423525 0.000549474419442727 2.5443460579111257 8.003658383412883 0.6655577393516862 2.7854423189371307 3.139448691444637 9.637890245175088" Properties=species:S:1:pos:R:3 unique_starting_index=30 config_type=initial n_minim_iter=4 stress="0.0009391891107736763 0.00037094565635177926 -0.0004297837987543796 0.00037094565635177926 -0.0004735425256385048 -0.0001906506495109911 -0.0004297837987543796 -0.0001906506495109911 -0.0005720210297447849" pbc="T T T"
Si       8.00561729       6.62044094       6.60872180
Si       5.65282949       5.40831882       3.69527566
Si       3.86949347       6.20493693       2.92288661
Si       9.78895331       5.82382283       7.38111085
Si       8.01280752       5.67356367       8.50658172
Si       5.64563926       6.35519609       1.79741574
Si       5.76161414       5.36877969      -0.07116872
Si       7.89683264       6.65998007      10.37516618
Si       4.29288990       6.39742211       4.99089907
Si       9.36555688       5.63133765       5.31309839
Si      10.66400712       6.93262088       4.26598240
Si       2.99443966       5.09613888       6.03801506
Si       3.78780349       4.50922163       4.18074786
Si       9.87064329       7.51953813       6.12324960
Si       6.20188068       8.38611240       1.59373096
Si       7.45656610       3.64264736       8.71026650
16
Lattice="8.326960874464058 0.8854216553991575 0.0013708577253152502 2.543633608759656 8.004007547954332 0.6660550664861379 2.7857004149416853 3.139803825302771 9.638501322423807" Properties=species:S:1:pos:R:3 unique_starting_index=30 config_type=initial n_minim_iter=5 stress="0.00011631893497108275 0.00018021095659952682 -0.00016907778544499017 0.00018021095659952682 -0.00024462742211446185 -5.229968333644416e-05 -0.00016907778544499017 -5.229968333644416e-05 0.00011853719349349764" pbc="T T T"
Si       8.00436522       6.62078279       6.60992965
Si       5.65192968       5.40845023       3.69599760
Si       3.86872878       6.20508553       2.92346529
Si       9.78756611       5.82414750       7.38246196
Si       8.01194959       5.67391652       8.50773771
Si       5.64434531       6.35531651       1.79818954
Si       5.76029205       5.36892559      -0.07048431
Si       7.89600285       6.66030744      10.37641156
Si       4.29226587       6.39785620       4.99175018
Si       9.36402903       5.63137683       5.31417707
Si      10.66209694       6.93263314       4.26713206
Si       2.99419796       5.09659989       6.03879519
Si       3.78731715       4.50926066       4.18125646
Si       9.86897775       7.51997237       6.12467079
Si       6.20050132       8.38643477       1.59476800
Si       7.45579358       3.64279826       8.71115924
16
Lattice="8.327180806117736 0.8854236234410765 0.0017231297136816614 2.5436755501903794 8.004526715484165 0.6659693586519008 2.7861808786095077 3.139819473612215 9.63785686255073" Properties=species:S:1:pos:R:3 unique_starting_index=30 config_type=initial n_minim_iter=6 stress="0.0005870359395374726 0.00017504740675475974 0.00013731991452278213 0.00017504740675475974 0.0005021160919826857 -4.557764395312646e-05 0.00013731991452278213 -4.557764395312646e-05 -0.0002564036689941005" pbc="T T T"
Si       8.00478848       6.62109899       6.60968290
Si       5.65224875       5.40867083       3.69586645
Si       3.86888599       6.20534178       2.92331034
Si       9.78815124       5.82442803       7.38223901
Si       8.01258791       5.67409745       8.50734470
Si       5.64444932       6.35567237       1.79820465
Si       5.76041703       5.36925544      -0.07038697
Si       7.89662020       6.66051438      10.37593632
Si       4.29255777       6.39820235       4.99146010
Si       9.36447947       5.63156747       5.31408925
Si      10.66253558       6.93287532       4.26706932
Si       2.99450166       5.09689450       6.03848003
Si       3.78759661       4.50932118       4.18098786
Si       9.86944063       7.52044864       6.12456149
Si       6.20072485       8.38697446       1.59478632
Si       7.45631238       3.64279536       8.71076303
16
Lattice="8.32693779050044 0.8837921853098252 -0.0005032998542455393 2.542447103599341 7.99897206644179 0.6619196311929908 2.783583308206148 3.133473314852695 9.634116312488876" Properties=species:S:1:pos:R:3 unique_starting_index=30 config_type=initial n_minim_iter=7 stress="-0.0003548635902361851 4.03303996375323e-05 -0.000665177250938611 4.03303996375323e-05 0.0005751963309300659 1.4542094082264127e-05 -0.000665177250938611 1.4542094082264127e-05 -9.434439586539792e-05" pbc="T T T"
Si       8.00166324       6.61394171       6.60384611
Si       5.65130496       5.40229586       3.69168654
Si       3.86682301       6.19824307       2.91942418
Si       9.78614519       5.81799450       7.37610847
Si       8.01127655       5.66582919       8.50118503
Si       5.64169165       6.35040837       1.79434761
Si       5.75973885       5.36480756      -0.07520554
Si       7.89322935       6.65143001      10.37073818
Si       4.29035935       6.39171639       4.98665101
Si       9.36260885       5.62452117       5.30888164
Si      10.66096308       6.92384409       4.25971700
Si       2.99200512       5.09239348       6.03581565
Si       3.78639265       4.50220792       4.17689008
Si       9.86657555       7.51402964       6.11864257
Si       6.19993315       8.38093944       1.58992204
Si       7.45303505       3.63529813       8.70561061
16
Lattice="8.327842676666618 0.8830317069587118 0.0005745850373262062 2.542420304571703 7.995762271751902 0.66143215867499 2.785098602174283 3.131110605446931 9.634432021618574" Properties=species:S:1:pos:R:3 unique_starting_index=30 config_type=initial n_minim_iter=8 stress="0.00017201981625373337 -2.2094383236834783e-05 0.00040628696308082847 -2.2094383236834783e-05 -0.0006252538366806579 2.284737979005764e-05 0.00040628696308082847 2.284737979005764e-05 0.0001325263970742433" pbc="T T T"
Si       8.00306271       6.61054336       6.60437660
Si       5.65229888       5.39936122       3.69206216
Si       3.86720320       6.19495397       2.91931345
Si       9.78815839       5.81495061       7.37712531
Si       8.01350414       5.66234140       8.50187470
Si       5.64185744       6.34756318       1.79456406
Si       5.76012321       5.36239940      -0.07528746
Si       7.89523837       6.64750519      10.37172623
Si       4.29127315       6.38854509       4.98670125
Si       9.36408843       5.62135950       5.30973751
Si      10.66247210       6.91974601       4.26033661
Si       2.99288949       5.09015858       6.03610216
Si       3.78734844       4.49932554       4.17692483
Si       9.86801314       7.51057905       6.11951394
Si       6.20066091       8.37746934       1.59000183
Si       7.45470068       3.63243524       8.70643693
16
Lattice="8.327547718747605 0.8818174902226426 -0.0005521292709317977 2.5414130757319953 7.992571116431358 0.6586682746723386 2.7837062087788786 3.126713776774359 9.633338729774476" Properties=species:S:1:pos:R:3 unique_starting_index=30 config_type=initial n_minim_iter=9 stress="-0.0002805249219981129 -1.8840586001141664e-05 0.0001858001097416678 -1.8840586001141664e-05 6.830783556847047e-05 6.340302099808713e-05 0.0001858001097416678 6.340302099808713e-05 0.00034319513508089967" pbc="T T T"
Si       8.00146099       6.60596193       6.60128629
Si       5.65120602       5.39514046       3.69016858
Si       3.86574299       6.19024173       2.91658524
Si       9.78692401       5.81086065       7.37486963
Si       8.01294707       5.65689703       8.49947690
Si       5.63971993       6.34420535       1.79197798
Si       5.75948830       5.36004911      -0.07834628
Si       7.89317871       6.64105327      10.36980116
Si       4.29012951       6.38423998       4.98441002
Si       9.36253749       5.61686240       5.30704485
Si      10.66118653       6.91342150       4.25715977
Si       2.99148047       5.08768088       6.03429510
Si       3.78703799       4.49452281       4.17497578
Si       9.86562901       7.50657958       6.11647910
Si       6.20005820       8.37391682       1.58696720
Si       7.45260880       3.62718556       8.70448768
16
Lattice="8.32721435454388 0.8812653472093862 -0.0013826433982737456 2.5407798562030646 7.991955487315543 0.6576417600080309 2.7825620198135312 3.125429322687729 9.632738957441841" Properties=species:S:1:pos:R:3 unique_starting_index=30 config_type=initial n_minim_iter=10 stress="-0.00030905667482736526 -0.0006209680412041103 0.0001233408263086395 -0.0006209680412041103 -5.53292877533615e-05 -0.000574610430794202 0.0001233408263086395 -0.000574610430794202 4.6376322309965465e-05" pbc="T T T"
Si       8.00031900       6.60453985       6.59991924
Si       5.65023723       5.39411031       3.68907884
Si       3.86494751       6.18910471       2.91551096
Si       9.78560872       5.80954545       7.37348711
Si       8.01180355       5.65542681       8.49816897
Si       5.63875268       6.34322334       1.79082911
Si       5.75891395       5.35942081      -0.07936524
Si       7.89164228       6.63922935      10.36836331
Si       4.28916750       6.38308441       4.98329340
Si       9.36138873       5.61556575       5.30570467
Si      10.65991396       6.91188514       4.25535489
Si       2.99064227       5.08676502       6.03364318
Si       3.78641942       4.49340292       4.17429681
Si       9.86413681       7.50524724       6.11470126
Si       6.19933525       8.37302890       1.58560346
Si       7.45122099       3.62562126       8.70339462
16
Lattice="8.326613828421438 0.8824353360484299 -0.002780001894079302 2.541621531723054 7.991841988831357 0.6577414640578635 2.781095247940647 3.1262678035182834 9.6326944825898" Properties=species:S:1:pos:R:3 unique_starting_index=30 config_type=initial n_minim_iter=11 stress="-0.0002822411534875617 -0.00024185770517963544 6.681143731234083e-05 -0.00024185770517963544 0.0005940001205204773 -0.0003593940681515781 6.681143731234083e-05 -0.0003593940681515781 4.184685680705129e-05" pbc="T T T"
Si       7.99970990       6.60578862       6.59922967
Si       5.64962071       5.39475651       3.68842627
Si       3.86496856       6.18879614       2.91510663
Si       9.78436205       5.81174899       7.37254931
Si       8.01093595       5.65711578       8.49729854
Si       5.63839466       6.34342935       1.79035741
Si       5.75906662       5.35982996      -0.07995842
Si       7.89026399       6.64071517      10.36761436
Si       4.28892524       6.38348037       4.98292131
Si       9.36040537       5.61706476       5.30473464
Si      10.65903364       6.91298293       4.25376034
Si       2.99029697       5.08756220       6.03389560
Si       3.78626191       4.49344238       4.17434559
Si       9.86306869       7.50710275       6.11331035
Si       6.20007005       8.37361078       1.58512777
Si       7.44926056       3.62693435       8.70252818
16
Lattice="8.325878073465285 0.884050835969061 -0.0060083156030644805 2.5431403023037404 7.987628676203837 0.6596493128595369 2.7774842554493366 3.12849048102067 9.63389598737368" Properties=species:S:1:pos:R:3 unique_starting_index=30 config_type=initial n_minim_iter=12 stress="-0.00014269578193548216 -8.536856034478053e-05 -7.372148966738502e-05 -8.536856034478053e-05 -0.0004060411473225593 0.00011519867794106306 -7.372148966738502e-05 0.00011519867794106306 -0.00019392208785925822" pbc="T T T"
Si       7.99837608       6.60639860       6.59959585
Si       5.64812655       5.39377140       3.68794114
Si       3.86464964       6.18473086       2.91554168
Si       9.78185299       5.81543913       7.37199531
Si       8.00916753       5.65894475       8.49716398
Si       5.63733510       6.34122525       1.79037300
Si       5.75960745       5.35870683      -0.08044289
Si       7.88689518       6.64146317      10.36797987
Si       4.28782202       6.38215623       4.98344474
Si       9.35868062       5.61801376       5.30409224
Si      10.65715599       6.91211318       4.25128724
Si       2.98934664       5.08805682       6.03624974
Si       3.78557978       4.49151279       4.17638356
Si       9.86092285       7.50865720       6.11115342
Si       6.20182501       8.36980113       1.58550121
Si       7.44467762       3.63036887       8.70203578
16
Lattice="8.325097979259578 0.8874518880774658 -0.005337848487525474 2.5464503385478525 7.985501418257166 0.6668266467494898 2.7784199124522924 3.1365763585021553 9.640866543403853" Properties=species:S:1:pos:R:3 unique_starting_index=30 config_type=initial n_minim_iter=13 stress="0.00048211376950034056 0.0005548867223062934 -0.00021278863598134647 0.0005548867223062934 -0.0004889303264520694 0.0007431031673098473 -0.00021278863598134647 0.0007431031673098473 0.0005360733558147694" pbc="T T T"
Si       8.00153520       6.61448152       6.60834676
Si       5.64843303       5.39504815       3.69400858
Si       3.86541713       6.18025131       2.92145392
Si       9.78455110       5.82927835       7.38090142
Si       8.01428617       5.66790915       8.50708923
Si       5.63568206       6.34162051       1.79526612
Si       5.75998676       5.35937549      -0.07506510
Si       7.88998147       6.65015417      10.37742044
Si       4.28896509       6.38515270       4.98830021
Si       9.36100314       5.62437697       5.31405513
Si      10.65789771       6.91472118       4.25730010
Si       2.99207052       5.09480848       6.04505524
Si       3.78722384       4.49061587       4.18715008
Si       9.86274439       7.51891379       6.11520526
Si       6.20640200       8.36807928       1.59451080
Si       7.44356623       3.64145038       8.70784454
16
Lattice="8.32746454254774 0.8881381534350099 -0.002191835602164792 2.5480343496017617 7.985963771347929 0.6738655658138353 2.7823142580321365 3.1440660521184083 9.646673798395764" Properties=species:S:1:pos:R:3 unique_starting_index=30 config_type=initial n_minim_iter=14 stress="0.001273261832409089 0.0008316009720529321 -0.00014514430433619906 0.0008316009720529321 6.698622276231062e-05 9.003077798604012e-05 -0.00014514430433619906 9.003077798604012e-05 3.2832657793350476e-05" pbc="T T T"
Si       8.00716507       6.62267822       6.61823401
Si       5.65064808       5.39548976       3.70011352
Si       3.86568512       6.17624783       2.92694449
Si       9.79212803       5.84192014       7.39140304
Si       8.02388416       5.67642022       8.51664544
Si       5.63392899       6.34174776       1.80170208
Si       5.76105268       5.36118389      -0.06937831
Si       7.89676048       6.65698408      10.38772584
Si       4.29037762       6.38833577       4.99265102
Si       9.36743553       5.62983221       5.32569651
Si      10.66207955       6.91523953       4.26504255
Si       2.99573360       5.10292844       6.05330498
Si       3.79015784       4.49130024       4.19917468
Si       9.86765531       7.52686773       6.11917285
Si       6.21137775       8.36813634       1.60410789
Si       7.44643540       3.65003163       8.71423964
16
Lattice="8.326384504305203 0.8830582612026809 -0.009384195556495863 2.542843156073357 7.980369004769117 0.6784929654134452 2.771126079046771 3.1495847043199823 9.641987888355246" Properties=species:S:1:pos:R:3 unique_starting_index=30 config_type=initial n_minim_iter=15 stress="-0.0007070158889564823 -0.0008584565147400238 0.00017542759631297174 -0.0008584565147400238 0.0003207699304124471 0.0007572346155898903 0.00017542759631297174 0.0007572346155898903 -0.0009172787635442592" pbc="T T T"
Si       7.99825991       6.62648019       6.61218966
Si       5.64209383       5.38653178       3.69890700
Si       3.85419699       6.16293141       2.92290997
Si       9.78615675       5.85008056       7.38818669
Si       8.01764094       5.67856854       8.51066180
Si       5.62271280       6.33444343       1.80043486
Si       5.75678666       5.35600965      -0.07172513
Si       7.88356708       6.65700232      10.38282179
Si       4.28280311       6.38915052       4.98595262
Si       9.35755063       5.62386145       5.32514404
Si      10.65359407       6.90333384       4.25450191
Si       2.98675966       5.10967813       6.05659475
Si       3.78543982       4.48602688       4.20624465
Si       9.85491392       7.52698510       6.10485201
Si       6.20821950       8.35860521       1.60587619
Si       7.43213423       3.65440676       8.70522047
16
Lattice="8.325863643644523 0.8806657113734299 -0.012183797951670069 2.540601053053479 7.976233206881886 0.6812165297839545 2.7665389878025852 3.152128445306496 9.639492635521915" Properties=species:S:1:pos:R:3 unique_starting_index=30 config_type=initial n_minim_iter=16 stress="-0.0010850971317800438 -0.0011792001232905675 0.00036607878493621454 -0.0011792001232905675 0.000743744534558641 0.0005487527789112567 0.00036607878493621454 0.0005487527789112567 -0.000455628825063038" pbc="T T T"
Si       7.99405645       6.62721017       6.60960614
Si       5.63894723       5.38181719       3.69891923
Si       3.84859120       6.15397033       2.91905441
Si       9.78441249       5.85505703       7.38947096
Si       8.01587927       5.67972060       8.50808275
Si       5.61712441       6.32930677       1.80044261
Si       5.75472469       5.35251459      -0.07240349
Si       7.87827900       6.65651277      10.38092886
Si       4.27915100       6.38860724       4.98181236
Si       9.35385268       5.62042012       5.32671300
Si      10.64986696       6.89664744       4.25009008
Si       2.98313673       5.11237992       6.05843529
Si       3.78267128       4.48138275       4.21202574
Si       9.85033241       7.52764461       6.09649963
Si       6.20725541       8.35201506       1.60767113
Si       7.42574828       3.65701231       8.70085423
16
Lattice="8.32487584712971 0.8788962475735835 -0.014615671902601445 2.5388381311254347 7.97215402467211 0.688902651991318 2.7617921061584676 3.160911440418758 9.636720717057845" Properties=species:S:1:pos:R:3 unique_starting_index=30 config_type=initial n_minim_iter=17 stress="-0.001063033455545297 -0.0007482740048695763 0.0005912277975471851 -0.0007482740048695763 0.0011951735152039057 0.00042569446133709543 0.0005912277975471851 0.00042569446133709543 0.00020543394646916052" pbc="T T T"
Si       7.99052813       6.63292902       6.60895902
Si       5.63497796       5.37903270       3.70204868
Si       3.84297830       6.14513148       2.91798625
Si       9.78252778       5.86683024       7.39302145
Si       8.01413521       5.68710671       8.50729155
Si       5.61137088       6.32485500       1.80371614
Si       5.75294716       5.34974327      -0.07044978
Si       7.87255893       6.66221844      10.38145748
Si       4.27583698       6.39130677       4.97863638
Si       9.34966911       5.62065494       5.33237131
Si      10.64501259       6.89239179       4.24798878
Si       2.98049350       5.11956992       6.06301891
Si       3.78000479       4.47931281       4.22109961
Si       9.84550130       7.53264891       6.08990809
Si       6.20626870       8.34577711       1.61540581
Si       7.41923739       3.66618460       8.69560189
16
Lattice="8.325543740717045 0.874895811589947 -0.022654479797288907 2.53526794016089 7.965453656081764 0.7054820406635782 2.749047540876733 3.1811596508853457 9.635529504846978" Properties=species:S:1:pos:R:3 unique_starting_index=30 config_type=initial n_minim_iter=18 stress="0.0006464526374593496 0.0004551665579403568 -0.00024169969403151176 0.0004551665579403568 0.002151143579464706 -0.001114461660113579 -0.00024169969403151176 -0.001114461660113579 0.0027537470941669906" pbc="T T T"
Si       7.98256585       6.64719109       6.60893755
Si       5.62729337       5.37431803       3.70941952
Si       3.83191730       6.12931351       2.91737157
Si       9.77794192       5.89219561       7.40098550
Si       8.00818246       5.70497792       8.51016027
Si       5.60167676       6.31653120       1.80819680
Si       5.75085282       5.34447722      -0.06640511
Si       7.85900640       6.67703190      10.38476217
Si       4.26711795       6.39955041       4.97505998
Si       9.34274128       5.62195871       5.34329709
Si      10.63666449       6.88528615       4.24280810
Si       2.97319473       5.13622297       6.07554897
Si       3.77305535       4.47818216       4.24015416
Si       9.83680387       7.54332696       6.07820290
Si       6.20554154       8.33527359       1.62927760
Si       7.40431768       3.68623553       8.68907947
16
Lattice="8.326224543321702 0.8662292024674281 -0.03287924791044115 2.527682429148711 7.952723787880824 0.7465610594684069 2.729054269128748 3.2292568752067203 9.636746099734784" Properties=species:S:1:pos:R:3 unique_starting_index=30 config_type=initial n_minim_iter=19 stress="0.0025170556754668836 0.0005559944667748217 0.001275851682199517 0.0005559944667748217 0.00044271475990086546 -0.0010695256774206447 0.001275851682199517 -0.0010695256774206447 0.00879243869191975" pbc="T T T"
Si       7.96968337       6.67957633       6.61759055
Si       5.61327787       5.36863354       3.73283736
Si       3.81217866       6.09793285       2.92345053
Si       9.77078258       5.95027701       7.42697738
Si       7.99838223       5.74856303       8.52682352
Si       5.58457901       6.29964684       1.82360439
Si       5.74692942       5.33359817      -0.05165757
Si       7.83603182       6.71461170      10.40208548
Si       4.24863504       6.41828293       4.97532142
Si       9.33432620       5.62992694       5.37510649
Si      10.61876183       6.87259326       4.24387865
Si       2.96419941       5.17561660       6.10654926
Si       3.75913966       4.47965234       4.28217463
Si       9.82382158       7.56855753       6.06825328
Si       6.20278479       8.31593893       1.66781088
Si       7.38017645       3.73227093       8.68261704
16
Lattice="8.336780030334044 0.8584428484237446 -0.03703331012124814 2.5228502304458766 7.954989977005955 0.7616985714495553 2.7226228110916595 3.2501205890768174 9.620095567740892" Properties=species:S:1:pos:R:3 unique_starting_index=30 config_type=initial n_minim_iter=20 stress="0.004066517845336341 0.0025591566341805457 -0.0010508875089706464 0.0025591566341805457 0.00048537697973264856 -0.0017010945456553917 -0.0010508875089706464 -0.0017010945456553917 0.006599286101415305" pbc="T T T"
Si       7.97167734       6.69352567       6.60736575
Si       5.61057573       5.37002774       3.73739508
Si       3.80705768       6.09204281       2.91745450
Si       9.77519539       5.97151061       7.42730633
Si       7.99361678       5.76880635       8.51889923
Si       5.58863630       6.29474707       1.82586160
Si       5.75202023       5.32873038      -0.04856514
Si       7.83023284       6.73482304      10.39332597
Si       4.24260514       6.43258844       4.96503453
Si       9.33964793       5.63096498       5.37972630
Si      10.62246874       6.87056380       4.23742685
Si       2.95978433       5.19298962       6.10733398
Si       3.75399181       4.48759791       4.28871100
Si       9.82826127       7.57595550       6.05604983
Si       6.20049213       8.31307425       1.67940922
Si       7.38176094       3.75047916       8.66535161
16
Lattice="8.35039960012443 0.8411448228659765 -0.0382781188188625 2.509104975292539 7.966080418874597 0.7740440377122793 2.7172162532657014 3.2689599560948994 9.58770358107124" Properties=species:S:1:pos:R:3 unique_starting_index=30 config_type=initial n_minim_iter=21 stress="0.00027976887875832556 0.00043315072532098127 -0.0011233386709024215 0.00043315072532098127 -0.00225471497705363 -0.0001855410225660054 -0.0011233386709024215 -0.0001855410225660054 -0.0047323569561155765" pbc="T T T"
Si       7.97467992       6.70504190       6.58617105
Si       5.60204091       5.37114330       3.73729845
Si       3.79904170       6.08643237       2.90210681
Si       9.77767913       5.98975283       7.42136269
Si       7.98103123       5.78914224       8.50081269
Si       5.59568960       6.28704296       1.82265681
Si       5.75650014       5.32068440      -0.05001374
Si       7.82022068       6.75550080      10.37348324
Si       4.22782515       6.44996402       4.94336071
Si       9.34889567       5.62622118       5.38010879
Si      10.62147048       6.85742518       4.22473485
Si       2.95525035       5.21876002       6.09873465
Si       3.74335652       4.49573161       4.28929277
Si       9.83336431       7.58045359       6.03417673
Si       6.18683410       8.31252765       1.68741742
Si       7.38988673       3.76365755       8.63605208
