8
Lattice="5.34438 0.0 0.0 0.0 5.35473 -3.2788264773991526e-16 0.0 3.2788264773991536e-16 5.35473" Properties=species:S:1:pos:R:3 unique_starting_index=2 config_type=initial n_minim_iter=1 pbc="T T T"
Si       2.76078165       1.74143209       3.47396141
Si       2.58359835       1.74143209       1.88076859
Si       3.46724669       3.61329791       2.58860178
Si       1.87713331       3.61329791       2.76612822
Si       5.25578835       3.61329791       0.79659641
Si       0.08859165       3.61329791       4.55813359
Si       4.54932331       1.74143209       5.26596678
Si       0.79505669       1.74143209       0.08876322
8
Lattice="5.384030282661478 0.0 0.0 0.0 5.366457354960872 -3.2860074112568013e-16 0.0 3.30289096452463e-16 5.394030289915803" Properties=species:S:1:pos:R:3 unique_starting_index=2 config_type=initial n_minim_iter=2 pbc="T T T"
Si       2.78144319       1.74509661       3.50082672
Si       2.60258709       1.74509661       1.89320357
Si       3.49435514       3.62136087       2.60741774
Si       1.88967515       3.62136087       2.78661255
Si       5.29460223       3.62136074       0.80381157
Si       0.08942805       3.62136074       4.59021872
Si       4.58169029       1.74509648       5.30443288
Si       0.80234000       1.74509648       0.08959741
8
Lattice="5.746054300660392 0.0 0.0 0.0 5.455269524713624 -3.340667878127898e-16 0.0 3.521843174108117e-16 5.752041314471277" Properties=species:S:1:pos:R:3 unique_starting_index=2 config_type=initial n_minim_iter=3 pbc="T T T"
Si       2.97019198       1.77309023       3.74631534
Si       2.77586232       1.77309023       2.00572597
Si       3.74261097       3.68218164       2.77871935
Si       2.00344333       3.68218164       2.97332196
Si       5.64888947       3.68217930       0.87029468
Si       0.09716483       3.68217930       4.88174663
Si       4.87647048       1.77308789       5.65474001
Si       0.86958382       1.77308789       0.09730131
8
Lattice="6.415341025550069 0.0 0.0 0.0 5.52352493499885 -3.4179864925022257e-16 0.0 3.8981935674151064e-16 6.419952016103166" Properties=species:S:1:pos:R:3 unique_starting_index=2 config_type=initial n_minim_iter=4 pbc="T T T"
Si       3.32063409       1.79433998       4.22398666
Si       3.09470694       1.79433998       2.19596535
Si       4.22134226       3.72918475       3.09688645
Si       2.19399877       3.72918475       3.32306557
Si       6.30237745       3.72918496       1.01401065
Si       0.11296358       3.72918496       5.40594136
Si       5.40166928       1.79434019       6.30686245
Si       1.01367175       1.79434019       0.11308956
8
Lattice="6.806346597044161 0.0 0.0 0.0 5.497881356889539 -3.710299966469403e-16 0.0 3.8464451138726273e-16 6.810141045839789" Properties=species:S:1:pos:R:3 unique_starting_index=2 config_type=initial n_minim_iter=5 pbc="T T T"
Si       3.52921125       1.79086539       4.50676706
Si       3.27713535       1.79086539       2.30337399
Si       4.50485079       3.70700766       3.27892439
Si       2.30149580       3.70700766       3.53121666
Si       6.68030864       3.70701597       1.10169653
Si       0.12603795       3.70701597       5.70844451
Si       5.70466910       1.79087369       6.68399491
Si       1.10167749       1.79087369       0.12614614
8
Lattice="6.77296344783544 0.0 0.0 0.0 5.336612361976971 -4.1831319331770324e-16 0.0 3.2716441014383086e-16 6.7766474774449" Properties=species:S:1:pos:R:3 unique_starting_index=2 config_type=initial n_minim_iter=6 pbc="T T T"
Si       3.51404483       1.74458137       4.48483231
Si       3.25891862       1.74458137       2.29181517
Si       4.48299672       3.59202261       3.26066876
Si       2.28996673       3.59202261       3.51597872
Si       6.64540035       3.59203099       1.09650857
Si       0.12756310       3.59203099       5.68013891
Si       5.67644846       1.74458975       6.64899249
Si       1.09651499       1.74458975       0.12765498
8
Lattice="6.794281095717745 0.0 0.0 0.0 5.382926881135133 -4.742004089304796e-16 0.0 2.7481333001173245e-16 6.7979317974536215" Properties=species:S:1:pos:R:3 unique_starting_index=2 config_type=initial n_minim_iter=7 pbc="T T T"
Si       3.52684823       1.76198456       4.49915477
Si       3.26743286       1.76198456       2.29877702
Si       4.49735505       3.62093248       3.26917773
Si       2.29692604       3.62093248       3.52875407
Si       6.66457341       3.62094232       1.10018888
Si       0.12970769       3.62094232       5.69774292
Si       5.69406659       1.76199440       6.66814363
Si       1.10021451       1.76199440       0.12978817
8
Lattice="6.813107432887396 0.0 0.0 0.0 5.379467672152111 -5.190641675714341e-16 0.0 2.313899836896183e-16 6.816632535244338" Properties=species:S:1:pos:R:3 unique_starting_index=2 config_type=initial n_minim_iter=8 pbc="T T T"
Si       3.53782152       1.76265521       4.51234111
Si       3.27528591       1.76265521       2.30429142
Si       4.51063968       3.61680205       3.27697648
Si       2.30246775       3.61680205       3.53965605
Si       6.68183963       3.61681246       1.10402485
Si       0.13126781       3.61681246       5.71260769
Si       5.70902147       1.76266562       6.68529275
Si       1.10408596       1.76266562       0.13133978
8
Lattice="7.015013151027208 0.0 0.0 0.0 5.344028005832325 -5.682311273315162e-16 0.0 1.9880719127985428e-16 7.017106920320763" Properties=species:S:1:pos:R:3 unique_starting_index=2 config_type=initial n_minim_iter=9 pbc="T T T"
Si       3.65066124       1.76129778       4.65500577
Si       3.36435191       1.76129778       2.36210115
Si       4.65439906       3.58271758       3.36538793
Si       2.36061409       3.58271758       3.65171899
Si       6.87185848       3.58273023       1.14645231
Si       0.14315467       3.58273023       5.87065461
Si       5.86812067       1.76131043       6.87394139
Si       1.14689248       1.76131043       0.14316553
8
Lattice="7.016910815923152 0.0 0.0 0.0 5.289659334002883 -6.11888068274487e-16 0.0 1.5416038314514672e-16 7.019312433096883" Properties=species:S:1:pos:R:3 unique_starting_index=2 config_type=initial n_minim_iter=10 pbc="T T T"
Si       3.65258008       1.74481889       4.65769267
Si       3.36433073       1.74481889       2.36161977
Si       4.65686351       3.54482812       3.36551752
Si       2.36004730       3.54482812       3.65379492
Si       6.87278614       3.54484045       1.14803645
Si       0.14412468       3.54484045       5.87127598
Si       5.86850271       1.74483121       6.87517373
Si       1.14840811       1.74483121       0.14413870
8
Lattice="7.039492759646825 0.0 0.0 0.0 5.259087241030217 -6.496665275013831e-16 0.0 1.180804573152796e-16 7.0422262330452154" Properties=species:S:1:pos:R:3 unique_starting_index=2 config_type=initial n_minim_iter=11 pbc="T T T"
Si       3.66562657       1.73612440       4.67512002
Si       3.37386619       1.73612440       2.36710622
Si       4.67405359       3.52295084       3.37521649
Si       2.36543917       3.52295084       3.66700975
Si       6.89361257       3.52296284       1.15400690
Si       0.14588019       3.52296284       5.88821933
Si       5.88518555       1.73613640       6.89632960
Si       1.15430721       1.73613640       0.14589663
8
Lattice="7.09609851216576 0.0 0.0 0.0 5.193942711609822 -6.833678281959061e-16 0.0 8.92920331598135e-17 7.099761960792617" Properties=species:S:1:pos:R:3 unique_starting_index=2 config_type=initial n_minim_iter=12 pbc="T T T"
Si       3.69946143       1.71881514       4.71990079
Si       3.39663708       1.71881514       2.37986117
Si       4.71815386       3.47511664       3.39844813
Si       2.37794465       3.47511664       3.70131384
Si       6.94468634       3.47512757       1.17001981
Si       0.15141217       3.47512757       5.92974215
Si       5.92599391       1.71882607       6.94832911
Si       1.17010461       1.71882607       0.15143285
8
Lattice="7.0588102654700124 0.0 0.0 0.0 5.194897258567137 -7.051298182542715e-16 0.0 6.367908162880204e-17 7.0620090521766485" Properties=species:S:1:pos:R:3 unique_starting_index=2 config_type=initial n_minim_iter=13 pbc="T T T"
Si       3.68333404       1.72187143       4.69658162
Si       3.37547622       1.72187143       2.36542743
Si       4.69511551       3.47301598       3.37707403
Si       2.36369475       3.47301598       3.68493503
Si       6.90488136       3.47302583       1.16557709
Si       0.15392891       3.47302583       5.89643196
Si       5.89309989       1.72188128       6.90807855
Si       1.16571038       1.72188128       0.15393050
8
Lattice="7.068239652031812 0.0 0.0 0.0 5.209954386614816 -7.233653162637512e-16 0.0 4.652400905457195e-17 7.071442892149501" Properties=species:S:1:pos:R:3 unique_starting_index=2 config_type=initial n_minim_iter=14 pbc="T T T"
Si       3.68939967       1.72736330       4.70417165
Si       3.37883998       1.72736330       2.36727124
Si       4.70269583       3.48258136       3.38044257
Si       2.36554383       3.48258136       3.69100032
Si       6.91295981       3.48259108       1.16845021
Si       0.15527985       3.48259108       5.90299268
Si       5.89966365       1.72737303       6.91616402
Si       1.16857600       1.72737303       0.15527887
