18
Lattice="6.208302793255518 -1.4794705996731076e-24 -4.270224769395627e-29 2.2360161307547222e-24 9.38299496684569 -1.0958349614391002e-15 8.296995341914965e-29 1.4087913289237363e-15 12.0626576206949" Properties=species:S:1:pos:R:3 unique_starting_index=81 config_type=initial n_minim_iter=1 energy=-2928.3925863918525 free_energy=-2928.3925863918525 pbc="T T T"
Si       2.85812763       3.62658679       4.96383485
Si       2.85812763       5.75640817       7.09882277
Si       2.85812763       3.62658679       7.09882277
Si       2.85812763       5.75640817       4.96383485
Si       5.00109171       3.62813099       4.96167164
Si       5.00109171       5.75486397       7.10098598
Si       5.00109171       3.62813099       7.10098598
Si       5.00109171       5.75486397       4.96167164
Si       3.93400934       7.59246490       4.96930026
Si       3.93400934       1.79053007       7.09335736
Si       3.93400934       7.59246490       7.09335736
Si       3.93400934       1.79053007       4.96930026
Si       4.44775155       8.32396801       9.01975673
Si       4.44775155       1.05902696       3.04290089
Si       4.44775155       8.32396801       3.04290089
Si       4.44775155       1.05902696       9.01975673
Si       3.14517728       9.38299497      10.30967725
Si       3.14517728      -0.00000000       1.75298037
18
Lattice="6.2081920917387405 -1.4794403403444633e-24 -4.270355933604539e-29 2.2360374019608425e-24 9.38305971162397 -1.095842603301775e-15 8.296478728307539e-29 1.4087719034903248e-15 12.062492175635246" Properties=species:S:1:pos:R:3 unique_starting_index=81 config_type=initial n_minim_iter=2 stress="4.498988728426952e-05 7.454501711501265e-17 -1.2712079434582717e-15 7.454501711501265e-17 4.6868054800902896e-07 9.375894441734136e-16 -1.2712079434582717e-15 9.375894441734136e-16 -0.00010355965979746574" pbc="T T T"
Si       2.85807560       3.62661158       4.96376597
Si       2.85807560       5.75644813       7.09872620
Si       2.85807560       3.62661158       7.09872620
Si       2.85807560       5.75644813       4.96376597
Si       5.00100439       3.62815539       4.96160021
Si       5.00100439       5.75490432       7.10089197
Si       5.00100439       3.62815539       7.10089197
Si       5.00100439       5.75490432       4.96160021
Si       3.93393854       7.59251640       4.96923226
Si       3.93393854       1.79054332       7.09325992
Si       3.93393854       7.59251640       7.09325992
Si       3.93393854       1.79054332       4.96923226
Si       4.44767372       8.32402424       9.01963426
Si       4.44767372       1.05903547       3.04285791
Si       4.44767372       8.32402424       3.04285791
Si       4.44767372       1.05903547       9.01963426
Si       3.14511800       9.38305971      10.30953454
Si       3.14511800      -0.00000000       1.75295764
18
Lattice="6.2079574131294715 -1.4793763801094582e-24 -4.2701305562858565e-29 2.236070965196192e-24 9.38314970254763 -1.0958531555221479e-15 8.296684581120235e-29 1.4087857308722302e-15 12.062611036278131" Properties=species:S:1:pos:R:3 unique_starting_index=81 config_type=initial n_minim_iter=3 stress="-3.618158441743097e-05 -8.535147622338302e-16 2.551389857232339e-15 -8.535147622338302e-16 5.9959927543075054e-05 1.2374396939091021e-15 2.551389857232339e-15 1.2374396939091021e-15 4.224283641038558e-05" pbc="T T T"
Si       2.85796355       3.62664674       4.96381109
Si       2.85796355       5.75650297       7.09879995
Si       2.85796355       3.62664674       7.09879995
Si       2.85796355       5.75650297       4.96381109
Si       5.00082170       3.62818931       4.96163772
Si       5.00082170       5.75496039       7.10097332
Si       5.00082170       3.62818931       7.10097332
Si       5.00082170       5.75496039       4.96163772
Si       3.93378736       7.59258573       4.96927911
Si       3.93378736       1.79056398       7.09333192
Si       3.93378736       7.59258573       7.09333192
Si       3.93378736       1.79056398       4.96927911
Si       4.44751172       8.32410203       9.01972757
Si       4.44751172       1.05904768       3.04288346
Si       4.44751172       8.32410203       3.04288346
Si       4.44751172       1.05904768       9.01972757
Si       3.14498708       9.38314970      10.30963428
Si       3.14498708      -0.00000000       1.75297675
18
Lattice="6.207828545606127 -1.479375183202748e-24 -4.270104598488236e-29 2.235991871878118e-24 9.383004977330362 -1.09583651793756e-15 8.296517230061093e-29 1.408777653084623e-15 12.062544786403437" Properties=species:S:1:pos:R:3 unique_starting_index=81 config_type=initial n_minim_iter=4 stress="-0.00011501012713023699 -8.552390846645333e-17 3.2134077866570756e-15 -8.552390846645333e-17 -0.00019822072526424616 7.817478055541126e-16 3.2134077866570756e-15 7.817478055541126e-16 8.470730890531681e-06" pbc="T T T"
Si       2.85789432       3.62659503       4.96377839
Si       2.85789432       5.75640995       7.09876639
Si       2.85789432       3.62659503       7.09876639
Si       2.85789432       5.75640995       4.96377839
Si       5.00073176       3.62813543       4.96159315
Si       5.00073176       5.75486955       7.10095163
Si       5.00073176       3.62813543       7.10095163
Si       5.00073176       5.75486955       4.96159315
Si       3.93370183       7.59246450       4.96924952
Si       3.93370183       1.79054048       7.09329526
Si       3.93370183       7.59246450       7.09329526
Si       3.93370183       1.79054048       4.96924952
Si       4.44743112       8.32397368       9.01968311
Si       4.44743112       1.05903130       3.04286167
Si       4.44743112       8.32397368       3.04286167
Si       4.44743112       1.05903130       9.01968311
Si       3.14489817       9.38300498      10.30957775
Si       3.14489817      -0.00000000       1.75296703
18
Lattice="6.2073140435249154 -1.4792290830311077e-24 -4.270337053921858e-29 2.2360609502249897e-24 9.383145894030154 -1.0958529033287038e-15 8.294980611493308e-29 1.4087102775393055e-15 12.061967094971763" Properties=species:S:1:pos:R:3 unique_starting_index=81 config_type=initial n_minim_iter=5 stress="-9.813920102664958e-05 -5.608390623141122e-16 5.158103515188082e-15 -5.608390623141122e-16 -2.3385341817407696e-05 1.0449139057497625e-15 5.158103515188082e-15 1.0449139057497625e-15 -3.573388352163432e-06" pbc="T T T"
Si       2.85756262       3.62668824       4.96349380
Si       2.85756262       5.75645766       7.09847329
Si       2.85756262       3.62668824       7.09847329
Si       2.85756262       5.75645766       4.96349380
Si       5.00044742       3.62821086       4.96120691
Si       5.00044742       5.75493503       7.10076019
Si       5.00044742       3.62821086       7.10076019
Si       5.00044742       5.75493503       4.96120691
Si       3.93334118       7.59255284       4.96899155
Si       3.93334118       1.79059305       7.09297554
Si       3.93334118       7.59255284       7.09297554
Si       3.93334118       1.79059305       4.96899155
Si       4.44716973       8.32409280       9.01929366
Si       4.44716973       1.05905309       3.04267343
Si       4.44716973       8.32409280       3.04267343
Si       4.44716973       1.05905309       9.01929366
Si       3.14442180       9.38314589      10.30909123
Si       3.14442180      -0.00000000       1.75287586
18
Lattice="6.207181506578916 -1.479150302042548e-24 -4.2711128546677826e-29 2.236188481228945e-24 9.38338171739086 -1.0958804068195579e-15 8.292694111908236e-29 1.4086081113731627e-15 12.061091885664446" Properties=species:S:1:pos:R:3 unique_starting_index=81 config_type=initial n_minim_iter=6 stress="-7.5926390196972e-05 -8.236825399452481e-16 3.210365897317059e-15 -8.236825399452481e-16 -1.806298990847651e-05 1.2423268126088143e-15 3.210365897317059e-15 1.2423268126088143e-15 -6.864636217047117e-06" pbc="T T T"
Si       2.85739934       3.62677351       4.96307230
Si       2.85739934       5.75660821       7.09801958
Si       2.85739934       3.62677351       7.09801958
Si       2.85739934       5.75660821       4.96307230
Si       5.00045987       3.62827808       4.96076077
Si       5.00045987       5.75510363       7.10033111
Si       5.00045987       3.62827808       7.10033111
Si       5.00045987       5.75510363       4.96076077
Si       3.93322044       7.59267364       4.96852661
Si       3.93322044       1.79070807       7.09256527
Si       3.93322044       7.59267364       7.09256527
Si       3.93322044       1.79070807       4.96852661
Si       4.44718151       8.32437928       9.01878054
Si       4.44718151       1.05900243       3.04231134
Si       4.44718151       8.32437928       3.04231134
Si       4.44718151       1.05900243       9.01878054
Si       3.14418081       9.38338172      10.30823630
Si       3.14418081      -0.00000000       1.75285559
18
Lattice="6.207328000060405 -1.4791577914153042e-24 -4.272529847110487e-29 2.2362627931985795e-24 9.383519647986509 -1.0958964725455066e-15 8.289232911958856e-29 1.4084547134408343e-15 12.059777954609052" Properties=species:S:1:pos:R:3 unique_starting_index=81 config_type=initial n_minim_iter=7 stress="0.00010474786763941529 -2.2355343092196078e-15 8.471596177725275e-17 -2.2355343092196078e-15 3.070795135247239e-05 1.4247779036693674e-15 8.471596177725275e-17 1.4247779036693674e-15 8.282276791265377e-06" pbc="T T T"
Si       2.85739833       3.62683502       4.96240771
Si       2.85739833       5.75668463       7.09737025
Si       2.85739833       3.62683502       7.09737025
Si       2.85739833       5.75668463       4.96240771
Si       5.00063040       3.62832213       4.96019145
Si       5.00063040       5.75519752       7.09958651
Si       5.00063040       3.62832213       7.09958651
Si       5.00063040       5.75519752       4.96019145
Si       3.93327668       7.59261066       4.96787580
Si       3.93327668       1.79090899       7.09190215
Si       3.93327668       7.59261066       7.09190215
Si       3.93327668       1.79090899       4.96787580
Si       4.44750530       8.32447401       9.01803284
Si       4.44750530       1.05904564       3.04174511
Si       4.44750530       8.32447401       3.04174511
Si       4.44750530       1.05904564       9.01803284
Si       3.14392235       9.38351965      10.30697355
Si       3.14392235      -0.00000000       1.75280440
18
Lattice="6.20712924201158 -1.47904225395001e-24 -4.273824675718573e-29 2.23644800139527e-24 9.383864468629602 -1.0959365287899951e-15 8.285490627708504e-29 1.4082918491958797e-15 12.058381074595529" Properties=species:S:1:pos:R:3 unique_starting_index=81 config_type=initial n_minim_iter=8 stress="0.00011558326678664405 -3.247246214818432e-16 1.4377232259883323e-15 -3.247246214818432e-16 5.02737248075106e-05 1.1077729299673732e-15 1.4377232259883323e-15 1.1077729299673732e-15 1.4158953597059666e-05" pbc="T T T"
Si       2.85726687       3.62707102       4.96167984
Si       2.85726687       5.75679345       7.09670124
Si       2.85726687       3.62707102       7.09670124
Si       2.85726687       5.75679345       4.96167984
Si       5.00047798       3.62857467       4.95957155
Si       5.00047798       5.75528980       7.09880953
Si       5.00047798       3.62857467       7.09880953
Si       5.00047798       5.75528980       4.95957155
Si       3.93313104       7.59281074       4.96714365
Si       3.93313104       1.79105373       7.09123743
Si       3.93313104       7.59281074       7.09123743
Si       3.93313104       1.79105373       4.96714365
Si       4.44759596       8.32479758       9.01726166
Si       4.44759596       1.05906689       3.04111941
Si       4.44759596       8.32479758       3.04111941
Si       4.44759596       1.05906689       9.01726166
Si       3.14345949       9.38386447      10.30555793
Si       3.14345949      -0.00000000       1.75282314
18
Lattice="6.207133708147825 -1.478912859880374e-24 -4.2758432861042885e-29 2.236802424685807e-24 9.38452433998876 -1.096014099044752e-15 8.280239337361013e-29 1.4080645105752676e-15 12.05644005667919" Properties=species:S:1:pos:R:3 unique_starting_index=81 config_type=initial n_minim_iter=9 stress="0.00011553731327474014 -4.844630783607762e-16 1.3448991857907271e-15 -4.844630783607762e-16 9.448630243721449e-05 1.033407259801488e-15 1.3448991857907271e-15 1.033407259801488e-15 2.6909190338088507e-05" pbc="T T T"
Si       2.85728512       3.62738756       4.96068954
Si       2.85728512       5.75713678       7.09575052
Si       2.85728512       3.62738756       7.09575052
Si       2.85728512       5.75713678       4.96068954
Si       5.00038460       3.62890358       4.95857872
Si       5.00038460       5.75562076       7.09786134
Si       5.00038460       3.62890358       7.09786134
Si       5.00038460       5.75562076       4.95857872
Si       3.93315286       7.59324181       4.96623380
Si       3.93315286       1.79128253       7.09020626
Si       3.93315286       7.59324181       7.09020626
Si       3.93315286       1.79128253       4.96623380
Si       4.44795141       8.32552395       9.01615456
Si       4.44795141       1.05900039       3.04028550
Si       4.44795141       8.32552395       3.04028550
Si       4.44795141       1.05900039       9.01615456
Si       3.14288082       9.38452434      10.30358918
Si       3.14288082      -0.00000000       1.75285088
18
Lattice="6.207292352837521 -1.4788458096544807e-24 -4.278879215411816e-29 2.237093031129367e-24 9.385078799225603 -1.0960790177465526e-15 8.272838033382482e-29 1.4077730763525472e-15 12.053946480132115" Properties=species:S:1:pos:R:3 unique_starting_index=81 config_type=initial n_minim_iter=10 stress="8.978669204633587e-05 -5.314147284118305e-16 2.7517873810990932e-15 -5.314147284118305e-16 0.00011050876927795543 9.011750213170422e-16 2.7517873810990932e-15 9.011750213170422e-16 1.21480227294687e-05" pbc="T T T"
Si       2.85739548       3.62763890       4.95946324
Si       2.85739548       5.75743990       7.09448324
Si       2.85739548       3.62763890       7.09448324
Si       2.85739548       5.75743990       4.95946324
Si       5.00038189       3.62917348       4.95728668
Si       5.00038189       5.75590532       7.09665980
Si       5.00038189       3.62917348       7.09665980
Si       5.00038189       5.75590532       4.95728668
Si       3.93329852       7.59357616       4.96493794
Si       3.93329852       1.79150264       7.08900854
Si       3.93329852       7.59357616       7.08900854
Si       3.93329852       1.79150264       4.96493794
Si       4.44845402       8.32610649       9.01461189
Si       4.44845402       1.05897231       3.03933459
Si       4.44845402       8.32610649       3.03933459
Si       4.44845402       1.05897231       9.01461189
Si       3.14227940       9.38507880      10.30108675
Si       3.14227940      -0.00000000       1.75285973
18
Lattice="6.2079629485135515 -1.4789681490348025e-24 -4.2820269675038415e-29 2.237198035781914e-24 9.385281829894573 -1.096102406413765e-15 8.265992605338338e-29 1.4074975337576657e-15 12.051583614616561" Properties=species:S:1:pos:R:3 unique_starting_index=81 config_type=initial n_minim_iter=11 stress="2.966473225037784e-05 -1.9295289632821384e-15 3.781685944484377e-15 -1.9295289632821384e-15 8.925667060775799e-05 7.970532057336861e-16 3.781685944484377e-15 7.970532057336861e-16 7.92334799065751e-06" pbc="T T T"
Si       2.85774949       3.62772388       4.95829132
Si       2.85774949       5.75755795       7.09329230
Si       2.85774949       3.62772388       7.09329230
Si       2.85774949       5.75755795       4.95829132
Si       5.00082975       3.62932586       4.95596683
Si       5.00082975       5.75595597       7.09561678
Si       5.00082975       3.62932586       7.09561678
Si       5.00082975       5.75595597       4.95596683
Si       3.93373078       7.59359527       4.96377406
Si       3.93373078       1.79168656       7.08780955
Si       3.93373078       7.59359527       7.08780955
Si       3.93373078       1.79168656       4.96377406
Si       4.44926737       8.32624947       9.01326342
Si       4.44926737       1.05903236       3.03832020
Si       4.44926737       8.32624947       3.03832020
Si       4.44926737       1.05903236       9.01326342
Si       3.14203272       9.38528183      10.29846144
Si       3.14203272      -0.00000000       1.75312218
18
Lattice="6.208241455797059 -1.4790310180321106e-24 -4.284213515578973e-29 2.237209954571968e-24 9.38530965391385 -1.0961065627209203e-15 8.260884129735634e-29 1.4072872163730997e-15 12.049792771979563" Properties=species:S:1:pos:R:3 unique_starting_index=81 config_type=initial n_minim_iter=12 stress="-0.00015368531108451294 -2.247776619181597e-15 3.0665302008790053e-15 -2.247776619181597e-15 -6.442625962706888e-05 1.092723866309898e-16 3.0665302008790053e-15 1.092723866309898e-16 -1.3407788317264403e-05" pbc="T T T"
Si       2.85797062       3.62782394       4.95735919
Si       2.85797062       5.75748571       7.09243358
Si       2.85797062       3.62782394       7.09243358
Si       2.85797062       5.75748571       4.95735919
Si       5.00100707       3.62922804       4.95513498
Si       5.00100707       5.75608162       7.09465779
Si       5.00100707       3.62922804       7.09465779
Si       5.00100707       5.75608162       4.95513498
Si       3.93385514       7.59355184       4.96287470
Si       3.93385514       1.79175781       7.08691808
Si       3.93385514       7.59355184       7.08691808
Si       3.93385514       1.79175781       4.96287470
Si       4.44980465       8.32625246       9.01226741
Si       4.44980465       1.05905720       3.03752537
Si       4.44980465       8.32625246       3.03752537
Si       4.44980465       1.05905720       9.01226741
Si       3.14151081       9.38530965      10.29629244
Si       3.14151081      -0.00000000       1.75350033
18
Lattice="6.2083721829041085 -1.4790754049591612e-24 -4.2854804544035057e-29 2.2371778129334926e-24 9.38525871666866 -1.0961002759584194e-15 8.258139994673021e-29 1.4072100436726836e-15 12.049128268564354" Properties=species:S:1:pos:R:3 unique_starting_index=81 config_type=initial n_minim_iter=13 stress="-0.00020787944828973715 -3.5991989045202645e-15 6.135200407452076e-15 -3.5991989045202645e-15 -0.00012110239874516157 2.5732025423960165e-16 6.135200407452076e-15 2.5732025423960165e-16 -2.2183128321051794e-05" pbc="T T T"
Si       2.85810128       3.62773983       4.95702465
Si       2.85810128       5.75751888       7.09210362
Si       2.85810128       3.62773983       7.09210362
Si       2.85810128       5.75751888       4.95702465
Si       5.00110398       3.62923119       4.95485689
Si       5.00110398       5.75602752       7.09427138
Si       5.00110398       3.62923119       7.09427138
Si       5.00110398       5.75602752       4.95485689
Si       3.93388006       7.59350422       4.96253770
Si       3.93388006       1.79175450       7.08659057
Si       3.93388006       7.59350422       7.08659057
Si       3.93388006       1.79175450       4.96253770
Si       4.45004963       8.32620823       9.01189396
Si       4.45004963       1.05905049       3.03723431
Si       4.45004963       8.32620823       3.03723431
Si       4.45004963       1.05905049       9.01189396
Si       3.14126607       9.38525872      10.29544423
Si       3.14126607      -0.00000000       1.75368404
18
Lattice="6.20883605456526 -1.4792409250413398e-24 -4.2856958299465185e-29 2.2370316392358112e-24 9.384994030549034 -1.0960699555778513e-15 8.258612984713455e-29 1.4072554145739626e-15 12.049523270888512" Properties=species:S:1:pos:R:3 unique_starting_index=81 config_type=initial n_minim_iter=14 stress="-7.515853109244361e-06 -3.4708557958718464e-15 7.03514770307782e-15 -3.4708557958718464e-15 -6.636930907627073e-06 3.342637653949905e-16 7.03514770307782e-15 3.342637653949905e-16 -5.371555773388136e-06" pbc="T T T"
Si       2.85834081       3.62759311       4.95727722
Si       2.85834081       5.75740092       7.09224606
Si       2.85834081       3.62759311       7.09224606
Si       2.85834081       5.75740092       4.95727722
Si       5.00143839       3.62913090       4.95504535
Si       5.00143839       5.75586313       7.09447792
Si       5.00143839       3.62913090       7.09447792
Si       5.00143839       5.75586313       4.95504535
Si       3.93421386       7.59339221       4.96273261
Si       3.93421386       1.79160183       7.08679066
Si       3.93421386       7.59339221       7.08679066
Si       3.93421386       1.79160183       4.96273261
Si       4.45038291       8.32595453       9.01215254
Si       4.45038291       1.05903950       3.03737073
Si       4.45038291       8.32595453       3.03737073
Si       4.45038291       1.05903950       9.01215254
Si       3.14144600       9.38499403      10.29560926
Si       3.14144600      -0.00000000       1.75391401
