16
Lattice="9.900564516839266 -0.8950030995637092 -0.16122414916728242 1.2468344887767473 8.413390799543068 0.5498033419846541 2.4178809954293192 3.0646501357137215 8.191747948324071" Properties=species:S:1:pos:R:3 unique_starting_index=30 config_type=initial n_minim_iter=1 energy=-2619.549517608146 free_energy=-2619.549517608146 pbc="T T T"
Si       8.53866127       5.19861322       5.02173690
Si       5.02661873       5.38442462       3.55859024
Si       3.34863004       4.90687972       2.40085765
Si      10.21664996       5.67615812       6.17946950
Si       8.59078894       4.65331171       7.06805322
Si       4.97449106       5.92972612       1.51227392
Si       5.95316365       4.73248296       0.06112623
Si       7.61211635       5.85055487       8.51920091
Si       3.28742602       6.59258926       3.67493571
Si      10.27785398       3.99044858       4.90539143
Si      11.51118869       4.45627142       3.24891148
Si       2.05409131       6.12676642       5.33141566
Si       3.27799343       4.64499648       4.50542530
Si      10.28728657       5.93804135       4.07490185
Si       5.64879844       7.93132549       1.37501909
Si       7.91648156       2.65171235       7.20530805
16
Lattice="9.899652577267695 -0.8938874252777483 -0.16131107672978218 1.2477099440604458 8.413979744098576 0.5494226379524247 2.41794229872287 3.0647189776001693 8.19201603595445" Properties=species:S:1:pos:R:3 unique_starting_index=30 config_type=initial n_minim_iter=2 stress="0.00014543107287032412 0.0003531855804472853 -0.00034021094678310295 0.0003531855804472853 0.0001405818721511891 -0.00016421684528934643 -0.00034021094678310295 -0.00016421684528934643 0.00031933740524090365" pbc="T T T"
Si       8.53855845       5.19963776       5.02165165
Si       5.02674637       5.38517354       3.55847595
Si       3.34891382       4.90742954       2.40073581
Si      10.21639100       5.67738175       6.17939178
Si       8.59054540       4.65424712       7.06811806
Si       4.97475942       5.93056418       1.51200953
Si       5.95322446       4.73342877       0.06083035
Si       7.61208036       5.85138253       8.51929724
Si       3.28792380       6.59314495       3.67478335
Si      10.27738102       3.99166634       4.90534425
Si      11.51071980       4.45772091       3.24873246
Si       2.05458502       6.12709039       5.33139513
Si       3.27821378       4.64545174       4.50540333
Si      10.28709104       5.93935956       4.07472426
Si       5.64923572       7.93236987       1.37468686
Si       7.91606910       2.65244143       7.20544074
16
Lattice="9.89908721897427 -0.8938398377713788 -0.16091443948164347 1.247707372349789 8.41403953288268 0.549469100666467 2.4181498137135 3.0647578752952898 8.19196442859255" Properties=species:S:1:pos:R:3 unique_starting_index=30 config_type=initial n_minim_iter=3 stress="-0.0007125189923784341 0.00031931045164139584 0.0001521982656108467 0.00031931045164139584 -0.00028653718195049656 -1.8396615163909766e-05 0.0001521982656108467 -1.8396615163909766e-05 -0.0003051897968529219" pbc="T T T"
Si       8.53834666       5.19970082       5.02190082
Si       5.02659775       5.38525675       3.55861827
Si       3.34887424       4.90748276       2.40085078
Si      10.21607016       5.67747481       6.17966831
Si       8.59037904       4.65431906       7.06832715
Si       4.97456537       5.93063851       1.51219194
Si       5.95291556       4.73347119       0.06105968
Si       7.61202885       5.85148638       8.51945941
Si       3.28794163       6.59318490       3.67486333
Si      10.27700277       3.99177267       4.90565576
Si      11.51020503       4.45782506       3.24913677
Si       2.05473937       6.12713251       5.33138232
Si       3.27824523       4.64553597       4.50544416
Si      10.28669917       5.93942160       4.07507493
Si       5.64900330       7.93244360       1.37492665
Si       7.91594110       2.65251397       7.20559244
16
Lattice="9.899466428184448 -0.8943245529841628 -0.16035911494763264 1.2474665031975911 8.415059239216614 0.5494851478546781 2.418581468974215 3.064969802947467 8.192606243361778" Properties=species:S:1:pos:R:3 unique_starting_index=30 config_type=initial n_minim_iter=4 stress="-0.00031621337454853913 3.0144789894810867e-05 0.00022165572987810188 3.0144789894810867e-05 0.0002012197312447645 0.00012669281434300823 0.00022165572987810188 0.00012669281434300823 0.0006826042566757932" pbc="T T T"
Si       8.53886179       5.19991788       5.02265096
Si       5.02665261       5.38578661       3.55908132
Si       3.34905027       4.90796037       2.40124312
Si      10.21646413       5.67774412       6.18048916
Si       8.59093674       4.65445113       7.06919066
Si       4.97457766       5.93125336       1.51254162
Si       5.95294386       4.73375562       0.06129078
Si       7.61257054       5.85194887       8.52044150
Si       3.28808517       6.59379336       3.67525618
Si      10.27742923       3.99191113       4.90647609
Si      11.51053122       4.45798331       3.24994257
Si       2.05498318       6.12772118       5.33178970
Si       3.27847921       4.64609687       4.50584041
Si      10.28703519       5.93960762       4.07589187
Si       5.64891815       7.93318864       1.37540547
Si       7.91659625       2.65251585       7.20632680
16
Lattice="9.900402912048113 -0.8943828364164298 -0.16051004455052698 1.2475596837206604 8.415536988930723 0.5488689549230178 2.418616903333949 3.064652247619503 8.191277175869956" Properties=species:S:1:pos:R:3 unique_starting_index=30 config_type=initial n_minim_iter=5 stress="-3.197289679548947e-06 0.00017483240845960689 -3.5821801983114265e-05 0.00017483240845960689 0.00010451833411482782 3.258541364029546e-05 -3.5821801983114265e-05 3.258541364029546e-05 -0.0001252614330941313" pbc="T T T"
Si       8.53963988       5.19983689       5.02149124
Si       5.02693962       5.38596951       3.55814484
Si       3.34941689       4.90810649       2.40066825
Si      10.21716261       5.67769991       6.17896784
Si       8.59157985       4.65421251       7.06774586
Si       4.97499965       5.93159389       1.51189022
Si       5.95347131       4.73393570       0.06080821
Si       7.61310819       5.85187070       8.51882787
Si       3.28836477       6.59390072       3.67432348
Si      10.27821473       3.99190568       4.90531261
Si      11.51146312       4.45811080       3.24900110
Si       2.05511638       6.12769560       5.33063499
Si       3.27867087       4.64627193       4.50483557
Si      10.28790863       5.93953447       4.07480052
Si       5.64935657       7.93352219       1.37474003
Si       7.91722293       2.65228421       7.20489606
16
Lattice="9.900482005490112 -0.8951877522930901 -0.16030738196968944 1.2468419036874974 8.415187815713788 0.5474306742344217 2.418399930221977 3.062956738259867 8.191182376661805" Properties=species:S:1:pos:R:3 unique_starting_index=30 config_type=initial n_minim_iter=6 stress="-0.0001529853765113986 8.214472359441349e-06 -0.00027890590147622405 8.214472359441349e-06 -0.0011486963350482893 -9.03189747426415e-05 -0.00027890590147622405 -9.03189747426415e-05 0.0004952481479974464" pbc="T T T"
Si       8.53929575       5.19799496       5.02091912
Si       5.02642809       5.38496184       3.55738654
Si       3.34933636       4.90735417       2.40009979
Si      10.21638748       5.67560264       6.17820588
Si       8.59121848       4.65197690       7.06738046
Si       4.97450536       5.93097991       1.51092521
Si       5.95295751       4.73314537       0.05996184
Si       7.61276633       5.84981143       8.51834383
Si       3.28791964       6.59281422       3.67339040
Si      10.27780420       3.99014258       4.90491527
Si      11.51109233       4.45655879       3.24836444
Si       2.05463151       6.12639802       5.32994122
Si       3.27810350       4.64553689       4.50423339
Si      10.28762034       5.93741991       4.07407228
Si       5.64872759       7.93247984       1.37348604
Si       7.91699625       2.65047696       7.20481963
16
Lattice="9.900889937117164 -0.8971966054381932 -0.15857707491657685 1.2455661728043879 8.418858198920196 0.5444897654641369 2.4191137701648815 3.061051818283127 8.189744567095302" Properties=species:S:1:pos:R:3 unique_starting_index=30 config_type=initial n_minim_iter=7 stress="6.157205238227811e-05 -0.00021681994238488095 0.0001957223019094863 -0.00021681994238488095 -5.2092735139391136e-05 -0.0005940331510400337 0.0001957223019094863 -0.0005940331510400337 -9.809252332163008e-06" pbc="T T T"
Si       8.53949408       5.19695184       5.01991886
Si       5.02607580       5.38576157       3.55573839
Si       3.34973105       4.90839561       2.39890707
Si      10.21583883       5.67431781       6.17675019
Si       8.59169122       4.64989485       7.06638177
Si       4.97387866       5.93281856       1.50927548
Si       5.95207977       4.73400302       0.05895264
Si       7.61349011       5.84871039       8.51670462
Si       3.28760933       6.59407611       3.67120222
Si      10.27796055       3.98863730       4.90445503
Si      11.51112183       4.45577937       3.24787357
Si       2.05444805       6.12693404       5.32778369
Si       3.27755853       4.64657060       4.50255672
Si      10.28801136       5.93614282       4.07310054
Si       5.64795729       7.93454342       1.37125399
Si       7.91761259       2.64816999       7.20440327
16
Lattice="9.900826092736148 -0.897843605997538 -0.15857462918151774 1.2452479150107343 8.421458589788008 0.5447591888134028 2.419001977181196 3.0621897464202257 8.189694331228166" Properties=species:S:1:pos:R:3 unique_starting_index=30 config_type=initial n_minim_iter=8 stress="-0.0004061346438315453 -0.00012902313738946843 -0.00043229931351793473 -0.00012902313738946843 3.7106564760404793e-06 0.00038042889637754726 -0.00043229931351793473 0.00038042889637754726 -9.548989780720318e-05" pbc="T T T"
Si       8.53928771       5.19816533       5.02015292
Si       5.02578827       5.38763940       3.55572597
Si       3.35005982       4.90992865       2.39921770
Si      10.21501617       5.67587608       6.17666119
Si       8.59141692       4.65102225       7.06643570
Si       4.97365907       5.93478248       1.50944319
Si       5.95163256       4.73495228       0.05904555
Si       7.61344342       5.85085245       8.51683334
Si       3.28742579       6.59606656       3.67147185
Si      10.27765020       3.98973817       4.90440705
Si      11.51086518       4.45688311       3.24782448
Si       2.05421080       6.12892162       5.32805441
Si       3.27692874       4.64883518       4.50257596
Si      10.28814725       5.93696955       4.07330293
Si       5.64773674       7.93662305       1.37154157
Si       7.91733924       2.64918168       7.20433732
16
Lattice="9.902464684773998 -0.8975579687169923 -0.15661375809653652 1.245920905413375 8.422775855383223 0.5445092479696044 2.4211283537564703 3.062273103162649 8.190174801198944" Properties=species:S:1:pos:R:3 unique_starting_index=30 config_type=initial n_minim_iter=9 stress="0.00025801833949847566 0.00011107375899833392 3.4356873984621756e-05 0.00011107375899833392 -0.0003027133725121404 0.0003537040779003745 3.4356873984621756e-05 0.0003537040779003745 -3.373880748300431e-05" pbc="T T T"
Si       8.54196280       5.19877726       5.02177328
Si       5.02755115       5.38871373       3.55629701
Si       3.35166861       4.91067412       2.39969748
Si      10.21784534       5.67681687       6.17837281
Si       8.59427190       4.65149319       7.06806740
Si       4.97524205       5.93599780       1.51000289
Si       5.95261716       4.73573618       0.05992847
Si       7.61689678       5.85175481       8.51814182
Si       3.28897350       6.59694647       3.67197939
Si      10.28054044       3.99054452       4.90609090
Si      11.51363553       4.45784112       3.24975026
Si       2.05587842       6.12964987       5.32832003
Si       3.27820648       4.65008338       4.50310279
Si      10.29130747       5.93740761       4.07496750
Si       5.64936983       7.93780296       1.37231161
Si       7.92014412       2.64968803       7.20575869
16
Lattice="9.901296686355348 -0.899984452784109 -0.15543481178281046 1.2440750187922136 8.426368023846448 0.542851613673353 2.4209930430489375 3.0614614069436583 8.190110251936865" Properties=species:S:1:pos:R:3 unique_starting_index=30 config_type=initial n_minim_iter=10 stress="-0.00016295656424407674 -0.00013241695482374766 -0.0001125529742361678 -0.00013241695482374766 -0.00012178812043301833 0.00015495193884460328 -0.0001125529742361678 0.00015495193884460328 -2.7915603481988414e-05" pbc="T T T"
Si       8.54034334       5.19795668       5.02206316
Si       5.02602141       5.38988829       3.55546390
Si       3.35098377       4.91175004       2.39899793
Si      10.21538097       5.67609494       6.17852913
Si       8.59242890       4.65012720       7.06833053
Si       4.97393585       5.93771778       1.50919652
Si       5.95036424       4.73646499       0.05959045
Si       7.61600051       5.85137999       8.51793661
Si       3.28748491       6.59864996       3.67133048
Si      10.27887984       3.98919501       4.90619657
Si      11.51165456       4.45685727       3.25016438
Si       2.05471019       6.13098771       5.32736267
Si       3.27673325       4.65167680       4.50287374
Si      10.28963150       5.93616818       4.07465331
Si       5.64711938       7.93977282       1.37165700
Si       7.91924537       2.64807216       7.20587005
16
Lattice="9.902372002598423 -0.9043946046964688 -0.15324361529812666 1.2410373669339023 8.431607059653844 0.5415828304612463 2.4216684562029935 3.061211348408849 8.189345052125777" Properties=species:S:1:pos:R:3 unique_starting_index=30 config_type=initial n_minim_iter=11 stress="6.270549549447571e-05 -0.00019322201212945155 -2.0161957535135646e-05 -0.00019322201212945155 -5.7176458121230305e-05 9.634992705179202e-05 -2.0161957535135646e-05 9.634992705179202e-05 -8.67649113929391e-05" pbc="T T T"
Si       8.54066368       5.19634034       5.02317903
Si       5.02441414       5.39208346       3.55450524
Si       3.35037609       4.91322883       2.39832812
Si      10.21470173       5.67519497       6.17935614
Si       8.59167339       4.64830421       7.06856146
Si       4.97340444       5.94011959       1.50912281
Si       5.94817200       4.73701428       0.06005101
Si       7.61690583       5.85140952       8.51763326
Si       3.28637675       6.60139389       3.67060587
Si      10.27870108       3.98702991       4.90707840
Si      11.51213520       4.45497836       3.25115483
Si       2.05294262       6.13344545       5.32652944
Si       3.27583029       4.65456267       4.50290021
Si      10.28924754       5.93386114       4.07478406
Si       5.64512561       7.94250116       1.37165699
Si       7.91995222       2.64592264       7.20602728
16
Lattice="9.903858284095648 -0.9065213869476155 -0.1521484598330643 1.2395959455222152 8.432987977624927 0.5411571591944666 2.4222466194618657 3.0607711797395645 8.189785737742401" Properties=species:S:1:pos:R:3 unique_starting_index=30 config_type=initial n_minim_iter=12 stress="9.677469778760147e-05 -0.00017437945802671622 1.0193584582776357e-05 -0.00017437945802671622 -6.84011338200505e-06 4.988280306069311e-05 1.0193584582776357e-05 4.988280306069311e-05 -3.112903645793253e-05" pbc="T T T"
Si       8.54148562       5.19484718       5.02388384
Si       5.02421522       5.39239059       3.55491060
Si       3.35022396       4.91332995       2.39840184
Si      10.21547689       5.67390782       6.18039260
Si       8.59231864       4.64697194       7.06966965
Si       4.97338221       5.94026583       1.50912479
Si       5.94776720       4.73662901       0.06027023
Si       7.61793365       5.85060877       8.51852421
Si       3.28607755       6.60167100       3.67078237
Si      10.27962330       3.98556677       4.90801207
Si      11.51356670       4.45329708       3.25236484
Si       2.05213415       6.13394069       5.32642959
Si       3.27576735       4.65527749       4.50318536
Si      10.28993350       5.93196028       4.07560908
Si       5.64473761       7.94302396       1.37189639
Si       7.92096324       2.64421381       7.20689804
16
Lattice="9.909819738578344 -0.9127513524177162 -0.14693251271380844 1.235461721287715 8.434809307314362 0.5383858155525797 2.4257382358005244 3.057114970902166 8.188496501493614" Properties=species:S:1:pos:R:3 unique_starting_index=30 config_type=initial n_minim_iter=13 stress="0.00024288690384362724 0.0001607809593551442 0.00011143990782975456 0.0001607809593551442 2.948097553286119e-05 -0.00020085949659355502 0.00011143990782975456 -0.00020085949659355502 6.787696430254341e-06" pbc="T T T"
Si       8.54550698       5.18668103       5.02505100
Si       5.02551272       5.39249190       3.55489880
Si       3.35095149       4.91234969       2.39782646
Si      10.22006820       5.66682323       6.18212335
Si       8.59710434       4.64044076       7.07113145
Si       4.97391536       5.93873217       1.50881836
Si       5.94755836       4.73422520       0.06058090
Si       7.62346133       5.84494773       8.51936890
Si       3.28668003       6.60043163       3.66941908
Si      10.28433966       3.97874130       4.91053072
Si      11.52032688       4.44543686       3.25569091
Si       2.05069282       6.13373606       5.32425889
Si       3.27631997       4.65449296       4.50254203
Si      10.29469973       5.92467997       4.07740777
Si       5.64449895       7.94224166       1.37248482
Si       7.92652074       2.63693127       7.20746499
16
Lattice="9.911670301508043 -0.9170754545218032 -0.1439002311113807 1.2323941768910467 8.437419763734228 0.5365192764476445 2.4271731804360446 3.055218298662023 8.18751663613859" Properties=species:S:1:pos:R:3 unique_starting_index=30 config_type=initial n_minim_iter=14 stress="1.802118778526237e-05 0.00032603205818824087 0.00020593075468406665 0.00032603205818824087 0.00021984135367834843 -0.0002573428376381652 0.00020593075468406665 -0.0002573428376381652 3.565567263936246e-05" pbc="T T T"
Si       8.54620264       5.18210434       5.02525620
Si       5.02503502       5.39345826       3.55487948
Si       3.35035970       4.91234915       2.39753634
Si      10.22087796       5.66321346       6.18259934
Si       8.59782980       4.63634417       7.07184655
Si       4.97340786       5.93921844       1.50828913
Si       5.94624067       4.73338224       0.06036725
Si       7.62499699       5.84218037       8.51976843
Si       3.28601971       6.60090318       3.66853213
Si      10.28521794       3.97465943       4.91160355
Si      11.52201991       4.44066326       3.25741840
Si       2.04921775       6.13489935       5.32271729
Si       3.27582271       4.65465828       4.50190037
Si      10.29541495       5.92090433       4.07823531
Si       5.64311802       7.94278590       1.37249954
Si       7.92811964       2.63277671       7.20763614
16
Lattice="9.91260244846978 -0.9305443573623441 -0.14879615631878518 1.2206597883301373 8.438625838470422 0.5215847560678893 2.417614046751695 3.03988571757971 8.17642479650821" Properties=species:S:1:pos:R:3 unique_starting_index=30 config_type=initial n_minim_iter=15 stress="-0.00019075806977575407 0.00016280339208499882 -0.00013429981024904437 0.00016280339208499882 6.437173452892883e-05 6.081285982902645e-05 -0.00013429981024904437 6.081285982902645e-05 0.00012034971801712869" pbc="T T T"
Si       8.53638329       5.15933871       5.00727419
Si       5.01449299       5.38862849       3.54193921
Si       3.34405793       4.90642394       2.38587416
Si      10.20681835       5.64154326       6.16333924
Si       8.58431582       4.61463963       7.05422090
Si       4.96656046       5.93332757       1.49499249
Si       5.93898123       4.72781307       0.04600327
Si       7.61189506       5.82015413       8.50321012
Si       3.27442303       6.59460327       3.65546092
Si      10.27645325       3.95336393       4.89375247
Si      11.51339852       4.41806726       3.23997884
Si       2.03747777       6.12989994       5.30923456
Si       3.26667956       4.64930519       4.49077897
Si      10.28419672       5.89866201       4.05843443
Si       5.63419567       7.93719023       1.35630563
Si       7.91668061       2.61077697       7.19290777
16
Lattice="9.9131213542772 -0.9351857565509251 -0.14934867290706172 1.2167318920519878 8.439241447795872 0.5170403268631142 2.4153495402977434 3.03518132915969 8.171997660492412" Properties=species:S:1:pos:R:3 unique_starting_index=30 config_type=initial n_minim_iter=16 stress="-0.00017393424266357767 2.6105285527484413e-06 -0.00014781161813566266 2.6105285527484413e-06 2.938899914055483e-05 0.00010122502900474797 -0.00014781161813566266 0.00010122502900474797 3.869389574255214e-05" pbc="T T T"
Si       8.53352968       5.15191613       5.00143282
Si       5.01167310       5.38732090       3.53825649
Si       3.34202803       4.90457410       2.38232070
Si      10.20317476       5.63466292       6.15736861
Si       8.58069447       4.60789699       7.04856013
Si       4.96450831       5.93134003       1.49112919
Si       5.93651143       4.72616701       0.04212728
Si       7.60869136       5.81307001       8.49756204
Si       3.27105509       6.59320758       3.65099225
Si      10.27414769       3.94602944       4.88869706
Si      11.51138831       4.41065122       3.23485736
Si       2.03381448       6.12858581       5.30483196
Si       3.26421779       4.64814540       4.48673947
Si      10.28098500       5.89109162       4.05294985
Si       5.63123822       7.93548007       1.35209765
Si       7.91396457       2.60375695       7.18759167
16
Lattice="9.918855848588302 -0.9504424352775294 -0.14634416937649392 1.2045533623664302 8.441056019812596 0.5006667413881902 2.4127060147072585 3.0177045926192805 8.158031141119253" Properties=species:S:1:pos:R:3 unique_starting_index=30 config_type=initial n_minim_iter=17 stress="0.00011036468288746243 -0.0003197722071766752 9.598706404588931e-06 -0.0003197722071766752 -0.00017462763898704503 0.0002265408003816221 9.598706404588931e-06 0.0002265408003816221 1.470011907254606e-06" pbc="T T T"
Si       8.52917397       5.12289009       4.98383981
Si       5.00694125       5.38542808       3.52851391
Si       3.33767323       4.89787819       2.37006656
Si      10.19844200       5.61043999       6.14228715
Si       8.57564985       4.58337564       7.03188073
Si       4.96046538       5.92494254       1.48047298
Si       5.93083612       4.72041550       0.02937015
Si       7.60527911       5.78790268       8.48298357
Si       3.26394961       6.58872012       3.63665744
Si      10.27216561       3.91959806       4.87569627
Si      11.51139302       4.38526876       3.22350599
Si       2.02472220       6.12304942       5.28884772
Si       3.25921177       4.64497512       4.47540854
Si      10.27690346       5.86334306       4.03694517
Si       5.62552935       7.92938428       1.33941581
Si       7.91058588       2.57893389       7.17293790
16
Lattice="9.9190226939579 -0.9936028640005109 -0.15571004691875417 1.1675205751067124 8.448316504089485 0.46917803868269414 2.388131652683662 2.9848329680691537 8.125227487278556" Properties=species:S:1:pos:R:3 unique_starting_index=30 config_type=initial n_minim_iter=18 stress="-0.0003199189942417925 0.0002818896385756053 -0.00019245791061396346 0.0002818896385756053 0.00011265028338730005 -7.026504580420887e-05 -0.00019245791061396346 -7.026504580420887e-05 -0.000305106712884548" pbc="T T T"
Si       8.49497212       5.05671514       4.93529811
Si       4.97970280       5.38283147       3.50339737
Si       3.31392954       4.88424269       2.34378115
Si      10.16074539       5.55530391       6.09491433
Si       8.53831657       4.53062929       6.98694103
Si       4.93635835       5.90891732       1.45175445
Si       5.90393841       4.70488583      -0.00103211
Si       7.57073651       5.73466078       8.43972759
Si       3.23193491       6.57906911       3.60518636
Si      10.24274001       3.86047749       4.83350912
Si      11.48463782       4.32550279       3.18291482
Si       1.99003710       6.11404382       5.25578066
Si       3.23267460       4.63765430       4.44952740
Si      10.24200032       5.80189231       3.98916808
Si       5.59498364       7.91566661       1.30712774
Si       7.87969128       2.52388000       7.13156774
16
Lattice="9.908152712251043 -1.002456862654904 -0.1670490013358591 1.1580332411826946 8.450280602471913 0.460442239365147 2.3724776770098135 2.9774912213530995 8.112141835420255" Properties=species:S:1:pos:R:3 unique_starting_index=30 config_type=initial n_minim_iter=19 stress="9.287170386998075e-05 -4.548037081472172e-06 0.0001514557237870718 -4.548037081472172e-06 3.494171765952721e-05 -6.943255913337493e-05 0.0001514557237870718 -6.943255913337493e-05 8.63798582378295e-05" pbc="T T T"
Si       8.47230880       5.04235710       4.91218395
Si       4.96635483       5.38295786       3.49335112
Si       3.30066775       4.88085877       2.33400316
Si      10.13799588       5.54445619       6.07153192
Si       8.51569090       4.51991604       6.96499375
Si       4.92297273       5.90539892       1.44054133
Si       5.89086471       4.70108390      -0.01226763
Si       7.54779892       5.72423107       8.41780271
Si       3.21701315       6.57725385       3.59351117
Si      10.22165048       3.84806111       4.81202390
Si      11.46117328       4.31473667       3.16023424
Si       1.97749035       6.11057829       5.24530084
Si       3.22017770       4.63683629       4.43983464
Si      10.21848593       5.78847867       3.96570043
Si       5.57993181       7.91228197       1.29241915
Si       7.85873182       2.51303299       7.11311592
16
Lattice="9.910109930382042 -1.0069162964005436 -0.17091449504814799 1.1544510571568103 8.45278576103827 0.45731692840124505 2.3680778496688952 2.9754392707919464 8.105164974649423" Properties=species:S:1:pos:R:3 unique_starting_index=30 config_type=initial n_minim_iter=20 stress="8.896585363080817e-05 -5.867648357996942e-05 0.00010079597099112435 -5.867648357996942e-05 -5.778041279816559e-05 4.0988519207546804e-05 0.00010079597099112435 4.0988519207546804e-05 5.662871644079797e-05" pbc="T T T"
Si       8.46954143       5.03722047       4.90247940
Si       4.96309741       5.38408827       3.48908800
Si       3.29826276       4.88035839       2.32921974
Si      10.13437608       5.54095035       6.06234766
Si       8.51229319       4.51605114       6.95570919
Si       4.92034565       5.90525759       1.43585822
Si       5.88891193       4.70031772      -0.01579830
Si       7.54372690       5.72099101       8.40736570
Si       3.21347566       6.57797005       3.58855815
Si      10.21916318       3.84333869       4.80300926
Si      11.45936435       4.30960575       3.15162328
Si       1.97327448       6.11170298       5.23994413
Si       3.21695681       4.63760036       4.43503520
Si      10.21568203       5.78370838       3.95653220
Si       5.57662712       7.91213668       1.28689640
Si       7.85601172       2.50917206       7.10467101
16
Lattice="9.919271634625298 -1.034232883123415 -0.1836900334432399 1.1321557869085421 8.462803859368995 0.4307950561748811 2.3485563279396007 2.952336693248381 8.065596797032189" Properties=species:S:1:pos:R:3 unique_starting_index=30 config_type=initial n_minim_iter=21 stress="-0.000325280296507668 8.05381977685282e-05 -0.0003320521035628036 8.05381977685282e-05 0.00016069376685496524 0.0002084347153554674 -0.0003320521035628036 0.0002084347153554674 -0.0002878710793780302" pbc="T T T"
Si       8.45489447       4.99828063       4.85101727
Si       4.94508928       5.38262704       3.46168455
Si       3.28337660       4.87250705       2.30032659
Si      10.11660715       5.50840062       6.01237523
Si       8.49587691       4.48116046       6.90509610
Si       4.90410684       5.89974721       1.40760572
Si       5.87726142       4.69212984      -0.03844462
Si       7.52272233       5.68877783       8.35114644
Si       3.19264281       6.57282039       3.55578395
Si      10.20734094       3.80808728       4.75691787
Si      11.45061799       4.27116887       3.10700703
Si       1.94936576       6.10973880       5.20569479
Si       3.19937380       4.63433489       4.40652727
Si      10.20060994       5.74657278       3.90617455
Si       5.55567857       7.90762975       1.25212755
Si       7.84430517       2.47327792       7.06057427
