22
Lattice="5.52501993726259 -0.7109504997940028 -1.3743535220894185 -2.480914597198343 11.59939230166916 -2.319265037966094 -4.580873304906188 -5.778552143543269 10.83404131287357" Properties=species:S:1:pos:R:3 unique_starting_index=18 config_type=initial n_minim_iter=1 energy=-3586.053224202554 free_energy=-3586.053224202554 pbc="T T T"
Si       0.13096461      10.49191636      -1.29656473
Si      -1.53680639      -1.43265558       5.60974371
Si      -3.75691664      -3.87635669       9.52079820
Si       0.26134962      -3.12500760       8.54825570
Si      -5.55687195      -0.49995954       8.84936992
Si       4.30471684       2.27131954      -0.24794448
Si       2.44575277       0.98114136       0.02009072
Si      -2.05526157       1.77736126       8.24345667
Si      -1.69504712      -3.82459818       9.02250453
Si      -2.58079003       0.95337820       5.76457692
Si       1.20708936      -0.75697413       2.87535959
Si      -2.97755458       3.47322828       4.79974561
Si      -3.30952249      -2.89748846       6.40371235
Si      -0.88810221       7.54457169      -1.16948083
Si       1.16379212       1.18816231       3.73357621
Si       0.78015045       8.59381026      -1.98719441
Si      -0.90525496      -1.69798811       3.22358505
Si       2.53920926      -5.36659239       6.18329740
Si       0.26656692       2.76007370       2.62984357
Si      -3.26382893       2.69962337       6.75881678
Si      -1.21293789       4.14830320       3.26195741
Si      -1.33454497      -2.85941485       7.16856496
22
Lattice="5.524955251536011 -0.7109524444230846 -1.374305021660606 -2.4809899319631232 11.599507124241281 -2.3196457967249136 -4.580600487144902 -5.778757532449064 10.834638200788007" Properties=species:S:1:pos:R:3 unique_starting_index=18 config_type=initial n_minim_iter=2 stress="0.000403923153029159 8.648727233442233e-05 7.903569997853545e-05 8.648727233442233e-05 0.000346776361394095 -0.0002792343642462831 7.903569997853545e-05 -0.0002792343642462831 0.0006443625437925401" pbc="T T T"
Si       0.13088387      10.49198797      -1.29684060
Si      -1.53670450      -1.43277431       5.61004086
Si      -3.75669966      -3.87651152       9.52132779
Si       0.26152989      -3.12517926       8.54870146
Si      -5.55667183      -0.50008960       8.84973719
Si       4.30463880       2.27131948      -0.24791868
Si       2.44573478       0.98110438       0.02013565
Si      -2.05508356       1.77720562       8.24383321
Si      -1.69485201      -3.82475744       9.02304989
Si      -2.58063753       0.95329676       5.76484060
Si       1.20716736      -0.75702239       2.87554989
Si      -2.97738929       3.47322490       4.79985410
Si      -3.30932404      -2.89757634       6.40404460
Si      -0.88808886       7.54464597      -1.16970908
Si       1.16379420       1.18804252       3.73377063
Si       0.78007408       8.59394064      -1.98737148
Si      -0.90521820      -1.69809845       3.22370956
Si       2.53928641      -5.36675245       6.18372393
Si       0.26668154       2.76000460       2.62995537
Si      -3.26369677       2.69953764       6.75911787
Si      -1.21290625       4.14833589       3.26207641
Si      -1.33436651      -2.85958321       7.16901156
22
Lattice="5.52472706635712 -0.7110078725601636 -1.3742476828330397 -2.481028838115839 11.599199555761025 -2.3194904382998045 -4.580270458263461 -5.778430811052899 10.83435031300277" Properties=species:S:1:pos:R:3 unique_starting_index=18 config_type=initial n_minim_iter=3 stress="-0.00017950227939225315 5.094063890198913e-05 -4.6531807786336416e-05 5.094063890198913e-05 -5.2157966754837996e-05 -0.00015894103020952518 -4.6531807786336416e-05 -0.00015894103020952518 0.0001616148256088442" pbc="T T T"
Si       0.13074738      10.49168943      -1.29671377
Si      -1.53660648      -1.43267492       5.60992066
Si      -3.75644704      -3.87624271       9.52110880
Si       0.26161465      -3.12500143       8.54845599
Si      -5.55638901      -0.49990897       8.84952915
Si       4.30441199       2.27121123      -0.24785990
Si       2.44562902       0.98102847       0.02017026
Si      -2.05495366       1.77725413       8.24369807
Si      -1.69468776      -3.82452461       9.02285493
Si      -2.58048268       0.95337236       5.76474972
Si       1.20717069      -0.75697330       2.87549793
Si      -2.97722268       3.47325333       4.79977077
Si      -3.30907811      -2.89736726       6.40387766
Si      -0.88808992       7.54444894      -1.16961938
Si       1.16372227       1.18800412       3.73372164
Si       0.77994071       8.59372204      -1.98717947
Si      -0.90517169      -1.69804633       3.22357723
Si       2.53924843      -5.36657065       6.18353356
Si       0.26672167       2.75992923       2.62995414
Si      -3.26355244       2.69958411       6.75904532
Si      -1.21289552       4.14832875       3.26209288
Si      -1.33421841      -2.85943441       7.16887339
22
Lattice="5.524852176065605 -0.7110995730738566 -1.3741738123003826 -2.4812329252135643 11.599258474438075 -2.31921692167868 -4.580192008200966 -5.778180313070125 10.833985229072455" Properties=species:S:1:pos:R:3 unique_starting_index=18 config_type=initial n_minim_iter=4 stress="0.00019573020796381874 -2.5183494092989446e-05 6.485903713709088e-05 -2.5183494092989446e-05 6.206874130913183e-05 7.167844608456862e-05 6.485903713709088e-05 7.167844608456862e-05 5.707099021092863e-05" pbc="T T T"
Si       0.13062125      10.49174351      -1.29645765
Si      -1.53657339      -1.43255716       5.60978430
Si      -3.75639869      -3.87600982       9.52083094
Si       0.26175689      -3.12482967       8.54821533
Si      -5.55641724      -0.49964574       8.84930137
Si       4.30448270       2.27118034      -0.24774955
Si       2.44568173       0.98099783       0.02022492
Si      -2.05492045       1.77746509       8.24358017
Si      -1.69458888      -3.82433137       9.02260294
Si      -2.58047786       0.95354328       5.76465526
Si       1.20725655      -0.75692588       2.87544428
Si      -2.97725527       3.47342419       4.79973529
Si      -3.30904299      -2.89719522       6.40366341
Si      -0.88817561       7.54448856      -1.16944206
Si       1.16377769       1.18807714       3.73370477
Si       0.77984972       8.59374586      -1.98693029
Si      -0.90514426      -1.69799439       3.22345878
Si       2.53942403      -5.36649314       6.18332533
Si       0.26675660       2.75999966       2.62997782
Si      -3.26358262       2.69979669       6.75897089
Si      -1.21293301       4.14847353       3.26213776
Si      -1.33412594      -2.85929075       7.16868408
22
Lattice="5.524823959007435 -0.7111639763355514 -1.3740735246580944 -2.481320150105848 11.599987064719667 -2.319282612698739 -4.580080067133148 -5.778639766344172 10.833517509772053" Properties=species:S:1:pos:R:3 unique_starting_index=18 config_type=initial n_minim_iter=5 stress="4.617598905381097e-05 -7.61120211379686e-05 -0.00021931941168365797 -7.61120211379686e-05 0.0004093847373427406 -1.396322400603829e-05 -0.00021931941168365797 -1.396322400603829e-05 -4.8361196675898014e-05" pbc="T T T"
Si       0.13042256      10.49246989      -1.29660988
Si      -1.53665934      -1.43286945       5.60958945
Si      -3.75648947      -3.87629472       9.52053067
Si       0.26182755      -3.12511515       8.54752809
Si      -5.55640235      -0.49964950       8.84880574
Si       4.30440047       2.27128440      -0.24770409
Si       2.44567100       0.98085366       0.02030678
Si      -2.05494543       1.77736850       8.24315638
Si      -1.69466271      -3.82476748       9.02218115
Si      -2.58045262       0.95366013       5.76444020
Si       1.20741000      -0.75705445       2.87526404
Si      -2.97717905       3.47351546       4.79948464
Si      -3.30887068      -2.89727345       6.40334862
Si      -0.88802072       7.54492977      -1.16951716
Si       1.16388751       1.18803962       3.73359355
Si       0.77979357       8.59432600      -1.98699827
Si      -0.90510338      -1.69828783       3.22324700
Si       2.53939982      -5.36685711       6.18305466
Si       0.26685310       2.76014194       2.62975602
Si      -3.26361971       2.69989352       6.75866133
Si      -1.21295198       4.14889474       3.26206427
Si      -1.33401402      -2.85964554       7.16833427
22
Lattice="5.524765096111938 -0.7110590696599047 -1.3738291744634938 -2.4812892985893327 11.599441028483321 -2.319455431887136 -4.579680855372034 -5.77848704339781 10.833362047304387" Properties=species:S:1:pos:R:3 unique_starting_index=18 config_type=initial n_minim_iter=6 stress="6.908235986888861e-05 4.0309332148563336e-05 7.612134154753613e-05 4.0309332148563336e-05 1.2964278306830911e-05 -3.585959197301518e-05 7.612134154753613e-05 -3.585959197301518e-05 2.514322284103429e-06" pbc="T T T"
Si       0.13044904      10.49203039      -1.29668889
Si      -1.53648390      -1.43291083       5.60955917
Si      -3.75618636      -3.87619785       9.52044840
Si       0.26216575      -3.12500453       8.54745968
Si      -5.55605763      -0.49970104       8.84855697
Si       4.30440829       2.27123366      -0.24751473
Si       2.44569252       0.98076789       0.02043920
Si      -2.05459144       1.77718401       8.24307628
Si      -1.69436597      -3.82469797       9.02214539
Si      -2.58018814       0.95360277       5.76436938
Si       1.20758601      -0.75702867       2.87530592
Si      -2.97691168       3.47326358       4.79936382
Si      -3.30859676      -2.89715357       6.40321456
Si      -0.88790462       7.54456917      -1.16960184
Si       1.16410583       1.18797926       3.73366400
Si       0.77980996       8.59398025      -1.98704269
Si      -0.90496561      -1.69829333       3.22320682
Si       2.53957669      -5.36659011       6.18317576
Si       0.26703522       2.76001666       2.62974684
Si      -3.26331909       2.69970191       6.75854261
Si      -1.21275024       4.14874896       3.26204917
Si      -1.33370350      -2.85959805       7.16828537
22
Lattice="5.524716179903558 -0.7111997425607035 -1.3739720579804249 -2.481500589897122 11.599165413126359 -2.3193044236740916 -4.5796200512821965 -5.778035704649557 10.833744849524713" Properties=species:S:1:pos:R:3 unique_starting_index=18 config_type=initial n_minim_iter=7 stress="-5.53378354075732e-05 -0.0001957169770063107 -1.795910021081835e-05 -0.0001957169770063107 -3.07579070253593e-05 7.649126503921706e-05 -1.795910021081835e-05 7.649126503921706e-05 0.0002554424707369698" pbc="T T T"
Si       0.13013498      10.49178964      -1.29661076
Si      -1.53660674      -1.43281238       5.60976911
Si      -3.75623053      -3.87586631       9.52088538
Si       0.26204673      -3.12473919       8.54761918
Si      -5.55617071      -0.49935309       8.84891817
Si       4.30426359       2.27106201      -0.24756963
Si       2.44564292       0.98055768       0.02046569
Si      -2.05475748       1.77725901       8.24345599
Si      -1.69441197      -3.82447310       9.02252436
Si      -2.58018343       0.95376366       5.76470819
Si       1.20765718      -0.75699884       2.87535382
Si      -2.97696650       3.47327777       4.79968913
Si      -3.30848628      -2.89677393       6.40344589
Si      -0.88793994       7.54433117      -1.16949039
Si       1.16400407       1.18805060       3.73380122
Si       0.77960159       8.59378635      -1.98706628
Si      -0.90488903      -1.69826512       3.22332311
Si       2.53951093      -5.36634282       6.18323442
Si       0.26693562       2.76001334       2.62990630
Si      -3.26347661       2.69988606       6.75898750
Si      -1.21279393       4.14882679       3.26235075
Si      -1.33365945      -2.85941404       7.16849382
22
Lattice="5.52478101959819 -0.7108727165805596 -1.373952881424358 -2.480870318729454 11.599001226025434 -2.3192964022350777 -4.580143854094897 -5.7784025387020375 10.833268828897046" Properties=species:S:1:pos:R:3 unique_starting_index=18 config_type=initial n_minim_iter=8 stress="6.482693667067694e-05 0.00020775398194363863 -0.00014179976959975392 0.00020775398194363863 -4.1334271229426235e-05 7.963477326251317e-05 -0.00014179976959975392 7.963477326251317e-05 1.9238641530005528e-05" pbc="T T T"
Si       0.13063024      10.49182698      -1.29675977
Si      -1.53692704      -1.43305077       5.60946199
Si      -3.75669134      -3.87623607       9.52056087
Si       0.26166146      -3.12476734       8.54706371
Si      -5.55651771      -0.49970492       8.84841946
Si       4.30443198       2.27128475      -0.24768992
Si       2.44575402       0.98051384       0.02047312
Si      -2.05485681       1.77692275       8.24299201
Si      -1.69480274      -3.82475822       9.02216525
Si      -2.58014981       0.95357358       5.76449095
Si       1.20775790      -0.75696985       2.87514549
Si      -2.97677169       3.47299342       4.79945887
Si      -3.30869217      -2.89686793       6.40313816
Si      -0.88737183       7.54418328      -1.16949025
Si       1.16400211       1.18810281       3.73354438
Si       0.78011100       8.59394023      -1.98719942
Si      -0.90494532      -1.69848403       3.22318586
Si       2.53908345      -5.36616145       6.18286567
Si       0.26703837       2.76003419       2.62973681
Si      -3.26352417       2.69967482       6.75872002
Si      -1.21247921       4.14881105       3.26223638
Si      -1.33385568      -2.85967655       7.16813295
22
Lattice="5.524676718591758 -0.7110033056257463 -1.373663530371462 -2.481275142700011 11.599291589443299 -2.3196718668157392 -4.579520129801024 -5.778707114323207 10.832756137509003" Properties=species:S:1:pos:R:3 unique_starting_index=18 config_type=initial n_minim_iter=9 stress="-1.2986235780791212e-05 -6.504079483985289e-05 2.1750966718907727e-05 -6.504079483985289e-05 6.813599470836226e-06 -0.00010547316644545011 2.1750966718907727e-05 -0.00010547316644545011 -0.00015545082423282206" pbc="T T T"
Si       0.13017708      10.49204492      -1.29711961
Si      -1.53678263      -1.43327060       5.60912973
Si      -3.75620987      -3.87655515       9.52015981
Si       0.26196703      -3.12507393       8.54670300
Si      -5.55622138      -0.49980189       8.84772316
Si       4.30427908       2.27118171      -0.24765392
Si       2.44570382       0.98031221       0.02056315
Si      -2.05463518       1.77662644       8.24243826
Si      -1.69438381      -3.82512347       9.02179790
Si      -2.57987906       0.95349568       5.76413717
Si       1.20799010      -0.75711047       2.87503797
Si      -2.97658387       3.47292253       4.79902822
Si      -3.30828492      -2.89689513       6.40276591
Si      -0.88751526       7.54427695      -1.16970767
Si       1.16406766       1.18796443       3.73334789
Si       0.77976630       8.59418464      -1.98744487
Si      -0.90470263      -1.69869828       3.22304806
Si       2.53936166      -5.36643725       6.18279061
Si       0.26700585       2.76002403       2.62951877
Si      -3.26337542       2.69962735       6.75821980
Si      -1.21235297       4.14886695       3.26196456
Si      -1.33344862      -2.86002347       7.16784017
22
Lattice="5.524323194201641 -0.7110017215458317 -1.3736950206068523 -2.4809611776726905 11.59894690810274 -2.318936072128143 -4.5791531691065215 -5.777869928053083 10.832874838346754" Properties=species:S:1:pos:R:3 unique_starting_index=18 config_type=initial n_minim_iter=10 stress="-0.0003377170870111833 9.172580033801896e-05 0.0001353213220686077 9.172580033801896e-05 0.00018181192804320087 0.00013954701945201003 0.0001353213220686077 0.00013954701945201003 -3.5171355434514262e-06" pbc="T T T"
Si       0.13017209      10.49198559      -1.29647602
Si      -1.53685296      -1.43296369       5.60925214
Si      -3.75589995      -3.87596720       9.52053657
Si       0.26195784      -3.12430979       8.54706073
Si      -5.55598871      -0.49909704       8.84796865
Si       4.30409482       2.27121496      -0.24748846
Si       2.44560848       0.98006270       0.02077850
Si      -2.05439807       1.77702989       8.24305443
Si      -1.69424587      -3.82447100       9.02196812
Si      -2.57958786       0.95403958       5.76461663
Si       1.20822550      -0.75681461       2.87513056
Si      -2.97604822       3.47317798       4.79961354
Si      -3.30796919      -2.89615569       6.40279696
Si      -0.88711449       7.54395845      -1.16914637
Si       1.16414857       1.18824875       3.73371032
Si       0.77986959       8.59416702      -1.98692045
Si      -0.90451010      -1.69867858       3.22306598
Si       2.53908406      -5.36565373       6.18271278
Si       0.26700863       2.76030574       2.62991738
Si      -3.26309081       2.70018436       6.75882871
Si      -1.21186751       4.14924719       3.26265310
Si      -1.33327903      -2.85966177       7.16803187
22
Lattice="5.524688787781615 -0.7110835580326403 -1.3740064424889644 -2.481240276825335 11.597682595928324 -2.318578940529626 -4.579741890029234 -5.776836592993758 10.833303006266762" Properties=species:S:1:pos:R:3 unique_starting_index=18 config_type=initial n_minim_iter=11 stress="4.978700439586394e-06 -2.562730492410574e-05 -0.00011185858074602405 -2.562730492410574e-05 -0.0002450700279410933 8.98956483217518e-06 -0.00011185858074602405 8.98956483217518e-06 -7.832927902549416e-05" pbc="T T T"
Si       0.12983616      10.49095947      -1.29634918
Si      -1.53739486      -1.43275560       5.60940599
Si      -3.75647390      -3.87534221       9.52111981
Si       0.26160034      -3.12370093       8.54738563
Si      -5.55693359      -0.49858609       8.84835257
Si       4.30430853       2.27086121      -0.24771034
Si       2.44574900       0.97962834       0.02075353
Si      -2.05498845       1.77691150       8.24349483
Si      -1.69472168      -3.82388096       9.02223805
Si      -2.57998875       0.95431741       5.76507324
Si       1.20844898      -0.75661944       2.87511878
Si      -2.97627232       3.47297171       4.80007820
Si      -3.30834875      -2.89531342       6.40300196
Si      -0.88704312       7.54298493      -1.16887997
Si       1.16406655       1.18817423       3.73383042
Si       0.77986338       8.59339767      -1.98679489
Si      -0.90457192      -1.69863858       3.22312038
Si       2.53891762      -5.36474488       6.18261350
Si       0.26677000       2.76014967       2.63008577
Si      -3.26369581       2.70024066       6.75930708
Si      -1.21188842       4.14912087       3.26313394
Si      -1.33357943      -2.85930103       7.16822600
22
Lattice="5.524527436714018 -0.711204500422037 -1.3739871333253595 -2.4813483651375643 11.597417031814794 -2.318114026722323 -4.579349611543599 -5.776139859788763 10.833321055957388" Properties=species:S:1:pos:R:3 unique_starting_index=18 config_type=initial n_minim_iter=12 stress="-0.000127995415813699 -6.79348181879626e-07 2.5973292084643318e-06 -6.79348181879626e-07 -0.0001072134050478211 3.7522173545565096e-05 2.5973292084643318e-06 3.7522173545565096e-05 -0.00014373578091226257" pbc="T T T"
Si       0.12944024      10.49097078      -1.29600670
Si      -1.53757766      -1.43263215       5.60939802
Si      -3.75619508      -3.87494709       9.52146759
Si       0.26179968      -3.12322174       8.54778531
Si      -5.55701907      -0.49793609       8.84830121
Si       4.30420183       2.27074929      -0.24764709
Si       2.44575603       0.97927018       0.02079694
Si      -2.05499982       1.77708226       8.24386474
Si      -1.69464139      -3.82360113       9.02248219
Si      -2.57978439       0.95484642       5.76544656
Si       1.20886677      -0.75639718       2.87514813
Si      -2.97581246       3.47317761       4.80043564
Si      -3.30813630      -2.89447946       6.40287111
Si      -0.88680015       7.54261500      -1.16847137
Si       1.16411930       1.18833940       3.73404547
Si       0.77986166       8.59341072      -1.98643516
Si      -0.90434001      -1.69880054       3.22305974
Si       2.53882632      -5.36408240       6.18257253
Si       0.26670282       2.76029506       2.63033056
Si      -3.26361123       2.70068268       6.75965053
Si      -1.21146188       4.14956238       3.26373469
Si      -1.33338954      -2.85911202       7.16815989
22
Lattice="5.524325415019956 -0.7112814520222139 -1.3741492099351977 -2.481336158945292 11.597042075080749 -2.3178597182481484 -4.579235389392193 -5.775603461395393 10.833783503948476" Properties=species:S:1:pos:R:3 unique_starting_index=18 config_type=initial n_minim_iter=13 stress="-0.0001263664584632942 5.273371434116608e-07 -9.16294406915852e-06 5.273371434116608e-07 -0.0001410584214371345 3.527483536573893e-05 -9.16294406915852e-06 3.527483536573893e-05 -0.0001141669640482281" pbc="T T T"
Si       0.12917140      10.49078610      -1.29587018
Si      -1.53782356      -1.43254454       5.60954966
Si      -3.75626411      -3.87463133       9.52214624
Si       0.26180273      -3.12295559       8.54833229
Si      -5.55722523      -0.49751756       8.84862291
Si       4.30402274       2.27060533      -0.24770081
Si       2.44571231       0.97899174       0.02074942
Si      -2.05529327       1.77716275       8.24437868
Si      -1.69466881      -3.82333957       9.02281515
Si      -2.57965826       0.95513793       5.76594185
Si       1.20908121      -0.75623664       2.87522112
Si      -2.97555676       3.47322074       4.80082934
Si      -3.30814806      -2.89381315       6.40300787
Si      -0.88657864       7.54222209      -1.16823359
Si       1.16399299       1.18854550       3.73421498
Si       0.77988036       8.59322767      -1.98634645
Si      -0.90417521      -1.69889577       3.22319789
Si       2.53854880      -5.36353571       6.18273820
Si       0.26662215       2.76024494       2.63053313
Si      -3.26364277       2.70088216       6.76016971
Si      -1.21122913       4.14985640       3.26429328
Si      -1.33342730      -2.85908357       7.16848078
22
Lattice="5.523961963392435 -0.7113908183228819 -1.37435438167801 -2.4812545324173927 11.597191117220232 -2.3176879508429336 -4.579102667359774 -5.775441926852254 10.834179605250588" Properties=species:S:1:pos:R:3 unique_starting_index=18 config_type=initial n_minim_iter=14 stress="-9.542437811448625e-05 -1.2949797469753833e-05 4.08298572273664e-07 -1.2949797469753833e-05 -0.00010426724866280454 2.66775582478319e-05 4.08298572273664e-07 2.66775582478319e-05 -8.192102468530175e-05" pbc="T T T"
Si       0.12896516      10.49089578      -1.29585723
Si      -1.53802749      -1.43268983       5.60973075
Si      -3.75629876      -3.87459720       9.52274132
Si       0.26171063      -3.12296305       8.54866644
Si      -5.55738170      -0.49727615       8.84885572
Si       4.30366137       2.27051417      -0.24774335
Si       2.44560438       0.97883925       0.02056743
Si      -2.05558489       1.77717716       8.24470099
Si      -1.69466619      -3.82329549       9.02313354
Si      -2.57949009       0.95534306       5.76630826
Si       1.20918434      -0.75608286       2.87527082
Si      -2.97527608       3.47338998       4.80109230
Si      -3.30819967      -2.89334801       6.40309524
Si      -0.88636946       7.54218935      -1.16806579
Si       1.16382455       1.18860566       3.73436661
Si       0.77962184       8.59348527      -1.98633217
Si      -0.90392116      -1.69902043       3.22344730
Si       2.53802948      -5.36331717       6.18281026
Si       0.26642048       2.76035259       2.63049794
Si      -3.26366820       2.70110776       6.76046752
Si      -1.21102611       4.15031240       3.26474520
Si      -1.33354114      -2.85922000       7.16867893
22
Lattice="5.523622980512209 -0.7113345631105872 -1.3746642981950277 -2.4807625984976225 11.597797779219462 -2.317633855832586 -4.579382985916325 -5.775823814698833 10.834799985762327" Properties=species:S:1:pos:R:3 unique_starting_index=18 config_type=initial n_minim_iter=15 stress="-3.77998630636981e-05 1.5650394947083397e-05 -1.307775243871047e-05 1.5650394947083397e-05 -1.4489726539225254e-05 2.3344810789844574e-05 -1.307775243871047e-05 2.3344810789844574e-05 3.4738886340669727e-06" pbc="T T T"
Si       0.12916498      10.49146884      -1.29593946
Si      -1.53833160      -1.43314339       5.61008355
Si      -3.75642588      -3.87506485       9.52346845
Si       0.26130457      -3.12312392       8.54896623
Si      -5.55772289      -0.49736239       8.84926325
Si       4.30329627       2.27067212      -0.24784942
Si       2.44553419       0.97882009       0.02036582
Si      -2.05599593       1.77708385       8.24510217
Si      -1.69508756      -3.82351529       9.02352323
Si      -2.57933157       0.95539804       5.76674269
Si       1.20919493      -0.75591320       2.87534573
Si      -2.97506026       3.47347458       4.80141747
Si      -3.30864340      -2.89325134       6.40330635
Si      -0.88600174       7.54244186      -1.16793779
Si       1.16364381       1.18884857       3.73445873
Si       0.77982786       8.59417261      -1.98641105
Si      -0.90385054      -1.69929360       3.22371180
Si       2.53711620      -5.36324190       6.18291046
Si       0.26635038       2.76053356       2.63051997
Si      -3.26373808       2.70126123       6.76070758
Si      -1.21069357       4.15087764       3.26517418
Si      -1.33384251      -2.85963984       7.16897224
22
Lattice="5.52350738860231 -0.7113768451384317 -1.3747352132269102 -2.480781485325145 11.598378462284396 -2.3179816452395947 -4.579367698150854 -5.776360244725542 10.835134903951422" Properties=species:S:1:pos:R:3 unique_starting_index=18 config_type=initial n_minim_iter=16 stress="8.20970490901582e-05 -6.844124683434235e-07 2.020038274549119e-05 -6.844124683434235e-07 3.931607503305372e-05 -2.2711593044919626e-05 2.020038274549119e-05 -2.2711593044919626e-05 3.906349864336052e-05" pbc="T T T"
Si       0.12904025      10.49199577      -1.29626805
Si      -1.53844850      -1.43373495       5.61025568
Si      -3.75641824      -3.87571499       9.52392982
Si       0.26125446      -3.12352613       8.54909622
Si      -5.55799913      -0.49761349       8.84926087
Si       4.30296684       2.27071182      -0.24792910
Si       2.44556534       0.97877056       0.02016010
Si      -2.05626263       1.77673313       8.24511330
Si      -1.69506552      -3.82392244       9.02369585
Si      -2.57915077       0.95534624       5.76687491
Si       1.20933760      -0.75580669       2.87542087
Si      -2.97495188       3.47342707       4.80134783
Si      -3.30880528      -2.89331996       6.40342666
Si      -0.88596341       7.54265846      -1.16805122
Si       1.16362775       1.18884944       3.73440466
Si       0.77981106       8.59466743      -1.98674115
Si      -0.90370659      -1.69960807       3.22389438
Si       2.53659225      -5.36329969       6.18302503
Si       0.26634798       2.76062997       2.63046569
Si      -3.26378717       2.70119668       6.76058319
Si      -1.21037714       4.15125322       3.26527972
Si      -1.33411039      -2.86025270       7.16902912
22
Lattice="5.523171044621239 -0.711432992388763 -1.3749551322621563 -2.480600899080695 11.599165677367154 -2.3181672929571704 -4.579372976528305 -5.776874082175083 10.835755968890432" Properties=species:S:1:pos:R:3 unique_starting_index=18 config_type=initial n_minim_iter=17 stress="0.00014039268884255218 -8.460333166921437e-06 -1.1201494521806788e-06 -8.460333166921437e-06 8.55131245338878e-05 -1.3445632270558754e-05 -1.1201494521806788e-06 -1.3445632270558754e-05 0.00013783215320144576" pbc="T T T"
Si       0.12899485      10.49278819      -1.29640829
Si      -1.53859491      -1.43431350       5.61051039
Si      -3.75648694      -3.87636508       9.52471101
Si       0.26100076      -3.12385764       8.54933308
Si      -5.55832115      -0.49790616       8.84956707
Si       4.30244048       2.27085988      -0.24799066
Si       2.44554297       0.97879923       0.01981655
Si      -2.05656500       1.77647730       8.24534496
Si      -1.69524385      -3.82438129       9.02404404
Si      -2.57901102       0.95545671       5.76716419
Si       1.20938574      -0.75564113       2.87553621
Si      -2.97471884       3.47357062       4.80144000
Si      -3.30911031      -2.89338612       6.40372311
Si      -0.88580876       7.54302875      -1.16804912
Si       1.16356310       1.18889581       3.73445226
Si       0.77977463       8.59525876      -1.98703382
Si      -0.90358032      -1.69992537       3.22417482
Si       2.53571784      -5.36316787       6.18320126
Si       0.26634262       2.76087638       2.63060644
Si      -3.26374805       2.70127729       6.76088938
Si      -1.20989287       4.15177877       3.26555838
Si      -1.33430989      -2.86085944       7.16933752
22
Lattice="5.52266473549809 -0.7113384023239129 -1.3747867694449978 -2.4801927661217955 11.600762567952017 -2.318780807878933 -4.578925324464196 -5.778321798919723 10.835687389360448" Properties=species:S:1:pos:R:3 unique_starting_index=18 config_type=initial n_minim_iter=18 stress="0.0001441136692262888 -1.464503724208517e-06 1.0623954388393781e-05 -1.464503724208517e-06 0.00012548981661896142 -3.190005811701768e-05 1.0623954388393781e-05 -3.190005811701768e-05 0.0001517796326270593" pbc="T T T"
Si       0.12926228      10.49421510      -1.29686685
Si      -1.53845414      -1.43527981       5.61031588
Si      -3.75625689      -3.87773971       9.52489593
Si       0.26110045      -3.12479139       8.54920552
Si      -5.55815686      -0.49877405       8.84907945
Si       4.30200692       2.27136471      -0.24782451
Si       2.44552603       0.97893006       0.01959216
Si      -2.05626423       1.77586810       8.24484602
Si      -1.69509485      -3.82555397       9.02381851
Si      -2.57850787       0.95535710       5.76687814
Si       1.20951989      -0.75571576       2.87549686
Si      -2.97410800       3.47364863       4.80104623
Si      -3.30911959      -2.89395921       6.40358036
Si      -0.88546602       7.54397008      -1.16831856
Si       1.16365575       1.18910813       3.73423289
Si       0.77971438       8.59666521      -1.98737481
Si      -0.90338995      -1.70052121       3.22422564
Si       2.53485211      -5.36349728       6.18334245
Si       0.26660578       2.76117250       2.63055371
Si      -3.26318811       2.70128549       6.76046688
Si      -1.20902522       4.15244250       3.26539400
Si      -1.33431411      -2.86201140       7.16908316
22
Lattice="5.522129330713418 -0.7113360642543173 -1.3745277142753285 -2.479997727317708 11.602394618204242 -2.3193900469011113 -4.578273111575995 -5.779734244734747 10.835223129648663" Properties=species:S:1:pos:R:3 unique_starting_index=18 config_type=initial n_minim_iter=19 stress="9.146238274803642e-05 5.233619917269285e-06 2.462810395206074e-05 5.233619917269285e-06 0.00015346072521532476 -3.3818282094341485e-05 2.462810395206074e-05 -3.3818282094341485e-05 0.0001063077613607749" pbc="T T T"
Si       0.12938321      10.49561626      -1.29731518
Si      -1.53819263      -1.43620917       5.60990736
Si      -3.75588562      -3.87904115       9.52467333
Si       0.26117673      -3.12577404       8.54884978
Si      -5.55783829      -0.49966395       8.84831251
Si       4.30163644       2.27182671      -0.24766973
Si       2.44543930       0.97895695       0.01954600
Si      -2.05601455       1.77538268       8.24405420
Si      -1.69465286      -3.82663147       9.02334407
Si      -2.57804054       0.95526615       5.76629714
Si       1.20958807      -0.75584335       2.87536886
Si      -2.97353999       3.47375991       4.80052867
Si      -3.30902276      -2.89451192       6.40317851
Si      -0.88530621       7.54495877      -1.16862053
Si       1.16373925       1.18914748       3.73386564
Si       0.77961629       8.59791928      -1.98774949
Si      -0.90320610      -1.70106054       3.22412958
Si       2.53407081      -5.36409592       6.18323750
Si       0.26684899       2.76140043       2.63027508
Si      -3.26254515       2.70136236       6.75980237
Si      -1.20837623       4.15309873       3.26504746
Si      -1.33408000      -2.86301742       7.16851869
22
Lattice="5.521967627737463 -0.7114543907118039 -1.374452241703782 -2.480240375339653 11.60322568004624 -2.319961293203814 -4.578032334371011 -5.7805797046580265 10.834996993948835" Properties=species:S:1:pos:R:3 unique_starting_index=18 config_type=initial n_minim_iter=20 stress="6.311946220017732e-05 1.3048455718913936e-06 2.239600629782648e-05 1.3048455718913936e-06 7.60489211289597e-05 -1.739157322859227e-05 2.239600629782648e-05 -1.739157322859227e-05 3.231457961319888e-05" pbc="T T T"
Si       0.12932968      10.49616664      -1.29777011
Si      -1.53812520      -1.43704461       5.60948563
Si      -3.75578711      -3.87996887       9.52464340
Si       0.26103775      -3.12650269       8.54856820
Si      -5.55805280      -0.50036694       8.84787952
Si       4.30154322       2.27205675      -0.24764583
Si       2.44550569       0.97879587       0.01944117
Si      -2.05620796       1.77479438       8.24339013
Si      -1.69472802      -3.82742881       9.02298663
Si      -2.57792334       0.95523123       5.76579749
Si       1.20960522      -0.75586521       2.87525030
Si      -2.97334716       3.47372800       4.80015246
Si      -3.30920555      -2.89468126       6.40294358
Si      -0.88542931       7.54539390      -1.16890180
Si       1.16369738       1.18897190       3.73339148
Si       0.77927880       8.59843944      -1.98830273
Si      -0.90304523      -1.70139026       3.22420049
Si       2.53327210      -5.36431597       6.18315391
Si       0.26706777       2.76133466       2.62993718
Si      -3.26227150       2.70136381       6.75934020
Si      -1.20805262       4.15359929       3.26479411
Si      -1.33421790      -2.86398467       7.16802772
22
Lattice="5.5218483349726375 -0.7116443176617956 -1.3747857508341363 -2.4805257174601536 11.603444055802298 -2.320396544596014 -4.578304109596585 -5.7809356088899095 10.835521422788199" Properties=species:S:1:pos:R:3 unique_starting_index=18 config_type=initial n_minim_iter=21 stress="-2.560766816964659e-05 2.5330810289579554e-05 -1.5418344817724277e-05 2.5330810289579554e-05 -1.1751640513179967e-05 5.437515366463153e-06 -1.5418344817724277e-05 5.437515366463153e-06 -5.8119638705487056e-05" pbc="T T T"
Si       0.12931782      10.49608601      -1.29817012
Si      -1.53834026      -1.43786537       5.60929114
Si      -3.75628733      -3.88046775       9.52535354
Si       0.26040427      -3.12703324       8.54860414
Si      -5.55870166      -0.50087834       8.84833348
Si       4.30134871       2.27216151      -0.24805207
Si       2.44565004       0.97852444       0.01913226
Si      -2.05688952       1.77412661       8.24336555
Si      -1.69527887      -3.82790605       9.02335017
Si      -2.57814791       0.95535296       5.76568840
Si       1.20939346      -0.75595936       2.87510307
Si      -2.97343284       3.47360628       4.80017843
Si      -3.30986736      -2.89443069       6.40311146
Si      -0.88564514       7.54538745      -1.16909267
Si       1.16351050       1.18887726       3.73311998
Si       0.77897888       8.59842850      -1.98886754
Si      -0.90307526      -1.70158358       3.22444915
Si       2.53185901      -5.36420967       6.18312320
Si       0.26706193       2.76130134       2.62966938
Si      -3.26235520       2.70138399       6.75936123
Si      -1.20781624       4.15396550       3.26480343
Si      -1.33476922      -2.86506250       7.16804082
