18
Lattice="6.163998672615537 -1.6216296827913955e-24 -5.15409357619622e-29 2.485469200586327e-24 9.447550828540013 -1.103368810423184e-15 1.013673543157792e-28 1.4158257773720002e-15 12.122950974977174" Properties=species:S:1:pos:R:3 unique_starting_index=81 config_type=initial n_minim_iter=1 energy=-2926.5881226210818 free_energy=-2926.5881226210818 pbc="T T T"
Si       3.03053638       3.66473470       4.99802926
Si       3.03053638       5.78281613       7.12492172
Si       3.03053638       3.66473470       7.12492172
Si       3.03053638       5.78281613       4.99802926
Si       5.16732941       3.65678763       4.84138983
Si       5.16732941       5.79076319       7.28156115
Si       5.16732941       3.65678763       7.28156115
Si       5.16732941       5.79076319       4.84138983
Si       4.08611099       7.63649593       4.99966191
Si       4.08611099       1.81105490       7.12328907
Si       4.08611099       7.63649593       7.12328907
Si       4.08611099       1.81105490       4.99966191
Si       4.04746795       8.38728193       9.10986950
Si       4.04746795       1.06026890       3.01308147
Si       4.04746795       8.38728193       3.01308147
Si       4.04746795       1.06026890       9.10986950
Si       2.71000344       9.44755083      10.38129071
Si       2.71000344      -0.00000000       1.74166027
18
Lattice="6.153149491341077 -1.6471316024310709e-24 -5.169973634243239e-29 2.4362564584976337e-24 9.424259112585943 -1.1006602529658616e-15 1.0077836795273486e-28 1.414476033627928e-15 12.11152463937805" Properties=species:S:1:pos:R:3 unique_starting_index=81 config_type=initial n_minim_iter=2 stress="0.000881251759844222 -1.9361628300481838e-16 -6.465320164735237e-16 -1.9361628300481838e-16 -0.014157344916058853 7.19030107818072e-17 -6.465320164735237e-16 7.19030107818072e-17 -0.00663214981327109" pbc="T T T"
Si       3.02526848       3.65522919       4.99331429
Si       3.02526848       5.76902992       7.11821035
Si       3.02526848       3.65522919       7.11821035
Si       3.02526848       5.76902992       4.99331429
Si       5.15823120       3.64763011       4.83687204
Si       5.15823120       5.77662900       7.27465260
Si       5.15823120       3.64763011       7.27465260
Si       5.15823120       5.77662900       4.83687204
Si       4.07879362       7.61740276       4.99488254
Si       4.07879362       1.80685635       7.11664210
Si       4.07879362       7.61740276       7.11664210
Si       4.07879362       1.80685635       4.99488254
Si       4.04017344       8.36693575       9.10146339
Si       4.04017344       1.05732337       3.01006125
Si       4.04017344       8.36693575       3.01006125
Si       4.04017344       1.05732337       9.10146339
Si       2.70570000       9.42425911      10.37105022
Si       2.70570000      -0.00000000       1.74047442
18
Lattice="6.133472347098559 -1.6523350519882081e-24 -5.19930596257701e-29 2.4225938817200338e-24 9.436177021244431 -1.1020522198545682e-15 9.991723036391272e-29 1.4158063116935521e-15 12.122916115694427" Properties=species:S:1:pos:R:3 unique_starting_index=81 config_type=initial n_minim_iter=3 stress="-0.009201091115421308 1.776265350053311e-15 -1.2840713693505583e-16 1.776265350053311e-15 -0.01110983970498594 -4.854440859508206e-16 -1.2840713693505583e-16 -4.854440859508206e-16 0.005094338502325542" pbc="T T T"
Si       3.01550044       3.65816272       4.99791149
Si       3.01550044       5.77801430       7.12500462
Si       3.01550044       3.65816272       7.12500462
Si       3.01550044       5.77801430       4.99791149
Si       5.14198028       3.65148604       4.84160792
Si       5.14198028       5.78469098       7.28130820
Si       5.14198028       3.65148604       7.28130820
Si       5.14198028       5.78469098       4.84160792
Si       4.06535008       7.62646141       4.99919973
Si       4.06535008       1.80971561       7.12371638
Si       4.06535008       7.62646141       7.12371638
Si       4.06535008       1.80971561       4.99919973
Si       4.02670166       8.37818461       9.11084557
Si       4.02670166       1.05799241       3.01207054
Si       4.02670166       8.37818461       3.01207054
Si       4.02670166       1.05799241       9.11084557
Si       2.69864876       9.43617702      10.37921791
Si       2.69864876      -0.00000000       1.74369821
18
Lattice="6.133262198412433 -1.666426185680135e-24 -5.49024831364534e-29 2.4020810813486957e-24 9.442741471838172 -1.102824019803864e-15 9.427382730584496e-29 1.4141768945820025e-15 12.109017795614236" Properties=species:S:1:pos:R:3 unique_starting_index=81 config_type=initial n_minim_iter=4 stress="-0.010316043279768181 3.4067868454060607e-15 2.546435890710453e-16 3.4067868454060607e-15 -0.004779444491330815 -5.960874354566606e-16 2.546435890710453e-16 -5.960874354566606e-16 -0.007134863100789303" pbc="T T T"
Si       3.01523029       3.65996278       4.99218164
Si       3.01523029       5.78277869       7.11683615
Si       3.01523029       3.65996278       7.11683615
Si       3.01523029       5.78277869       4.99218164
Si       5.14202840       3.65374639       4.83615910
Si       5.14202840       5.78899508       7.27285869
Si       5.14202840       3.65374639       7.27285869
Si       5.14202840       5.78899508       4.83615910
Si       4.06501105       7.63159909       4.99334140
Si       4.06501105       1.81114239       7.11567640
Si       4.06501105       7.63159909       7.11567640
Si       4.06501105       1.81114239       4.99334140
Si       4.02635230       8.38424279       9.10064005
Si       4.02635230       1.05849868       3.00837775
Si       4.02635230       8.38424279       3.00837775
Si       4.02635230       1.05849868       9.10064005
Si       2.69926364       9.44274147      10.36662691
Si       2.69926364      -0.00000000       1.74239088
18
Lattice="6.1558881103242715 -1.6786366350361436e-24 -5.506154270405554e-29 2.3908852236741287e-24 9.4367003576538 -1.1021201965687491e-15 9.432085304408762e-29 1.4143374259108406e-15 12.110411184748923" Properties=species:S:1:pos:R:3 unique_starting_index=81 config_type=initial n_minim_iter=5 stress="-0.004602356875105794 3.563808311523664e-15 3.2588210592787284e-16 3.563808311523664e-15 -0.005389861919098854 -1.9531518112450174e-16 3.2588210592787284e-16 -1.9531518112450174e-16 -0.0022152745113837155" pbc="T T T"
Si       3.02544980       3.65504801       4.99260613
Si       3.02544980       5.78165234       7.11780506
Si       3.02544980       3.65504801       7.11780506
Si       3.02544980       5.78165234       4.99260613
Si       5.16209408       3.65060836       4.83715600
Si       5.16209408       5.78609200       7.27325519
Si       5.16209408       3.65060836       7.27325519
Si       5.16209408       5.78609200       4.83715600
Si       4.07918139       7.62600108       4.99309728
Si       4.07918139       1.81069927       7.11731391
Si       4.07918139       7.62600108       7.11731391
Si       4.07918139       1.81069927       4.99309728
Si       4.04064285       8.37981329       9.10248346
Si       4.04064285       1.05688706       3.00792772
Si       4.04064285       8.37981329       3.00792772
Si       4.04064285       1.05688706       9.10248346
Si       2.71161317       9.43670036      10.36547008
Si       2.71161317      -0.00000000       1.74494110
18
Lattice="6.161415317540854 -1.6817356788560976e-24 -5.50695247300019e-29 2.386377735321147e-24 9.429695127319196 -1.1013016730521376e-15 9.442064851049126e-29 1.414738255690043e-15 12.11383877573604" Properties=species:S:1:pos:R:3 unique_starting_index=81 config_type=initial n_minim_iter=6 stress="-0.0015165907616481254 2.849519600225524e-15 3.3812228303034304e-16 2.849519600225524e-15 -0.0046636488081478215 -8.225788982781133e-16 3.3812228303034304e-16 -8.225788982781133e-16 -0.0011532313917089634" pbc="T T T"
Si       3.02606034       3.65297542       4.99267690
Si       3.02606034       5.77671971       7.12116187
Si       3.02606034       3.65297542       7.12116187
Si       3.02606034       5.77671971       4.99267690
Si       5.16727554       3.64535219       4.84054661
Si       5.16727554       5.78434294       7.27329217
Si       5.16727554       3.64535219       7.27329217
Si       5.16727554       5.78434294       4.84054661
Si       4.08148914       7.62008452       4.99486448
Si       4.08148914       1.80961060       7.11897430
Si       4.08148914       7.62008452       7.11897430
Si       4.08148914       1.80961060       4.99486448
Si       4.04610244       8.37111961       9.10432355
Si       4.04610244       1.05857552       3.00951522
Si       4.04610244       8.37111961       3.00951522
Si       4.04610244       1.05857552       9.10432355
Si       2.71621307       9.42969513      10.36593634
Si       2.71621307      -0.00000000       1.74790243
18
Lattice="6.161203567595297 -1.6822030242459803e-24 -5.496879571335113e-29 2.3852043925601787e-24 9.42831914819148 -1.1011409096804796e-15 9.469931515137077e-29 1.4158355976728936e-15 12.123233829871134" Properties=species:S:1:pos:R:3 unique_starting_index=81 config_type=initial n_minim_iter=7 stress="0.001687520520124638 4.0700615329868706e-15 5.210307782739166e-17 4.0700615329868706e-15 0.0017418883908191893 -2.8937800514089805e-16 5.210307782739166e-17 -2.8937800514089805e-16 0.0012799394702401135" pbc="T T T"
Si       3.02371215       3.65202233       4.99669170
Si       3.02371215       5.77629682       7.12654213
Si       3.02371215       3.65202233       7.12654213
Si       3.02371215       5.77629682       4.99669170
Si       5.16720305       3.64589692       4.84712595
Si       5.16720305       5.78242223       7.27610788
Si       5.16720305       3.64589692       7.27610788
Si       5.16720305       5.78242223       4.84712595
Si       4.07937595       7.61997019       5.00024931
Si       4.07937595       1.80834895       7.12298452
Si       4.07937595       7.61997019       7.12298452
Si       4.07937595       1.80834895       5.00024931
Si       4.04895732       8.36837461       9.11100233
Si       4.04895732       1.05994454       3.01223150
Si       4.04895732       8.36837461       3.01223150
Si       4.04895732       1.05994454       9.11100233
Si       2.71835590       9.42831915      10.37159057
Si       2.71835590      -0.00000000       1.75164326
18
Lattice="6.158352955180819 -1.681459232266491e-24 -5.489770502697745e-29 2.3854250947128572e-24 9.429013286670536 -1.101222464400703e-15 9.484421373144646e-29 1.4164754619765765e-15 12.128717925158831" Properties=species:S:1:pos:R:3 unique_starting_index=81 config_type=initial n_minim_iter=8 stress="0.004167721051615952 3.049805751249282e-15 1.554008263775284e-15 3.049805751249282e-15 0.0065929614696951236 -2.0547068837299116e-16 1.554008263775284e-15 -2.0547068837299116e-16 0.002466606356980539" pbc="T T T"
Si       3.01993937       3.65215144       4.99992756
Si       3.01993937       5.77686184       7.12879037
Si       3.01993937       3.65215144       7.12879037
Si       3.01993937       5.77686184       4.99992756
Si       5.16428322       3.64662504       4.85267239
Si       5.16428322       5.78238825       7.27604554
Si       5.16428322       3.64662504       7.27604554
Si       5.16428322       5.78238825       4.85267239
Si       4.07561007       7.62238346       5.00165280
Si       4.07561007       1.80662983       7.12706513
Si       4.07561007       7.62238346       7.12706513
Si       4.07561007       1.80662983       5.00165280
Si       4.05073195       8.36879068       9.11391844
Si       4.05073195       1.06022261       3.01479948
Si       4.05073195       8.36879068       3.01479948
Si       4.05073195       1.06022261       9.11391844
Si       2.71936501       9.42901329      10.37413441
Si       2.71936501      -0.00000000       1.75458352
18
Lattice="6.159445207695738 -1.6819246863242338e-24 -5.481857648054089e-29 2.38513834477997e-24 9.429020496408004 -1.1012224022986375e-15 9.510602971689414e-29 1.4176474451085293e-15 12.138742850763416" Properties=species:S:1:pos:R:3 unique_starting_index=81 config_type=initial n_minim_iter=9 stress="0.00821783109167335 2.7148874337112296e-15 -5.011047480120754e-16 2.7148874337112296e-15 0.009630075720085273 -2.603960978092196e-16 -5.011047480120754e-16 -2.603960978092196e-16 0.0037866135628957178" pbc="T T T"
Si       3.01689742       3.65197116       5.00596156
Si       3.01689742       5.77704933       7.13278129
Si       3.01689742       3.65197116       7.13278129
Si       3.01689742       5.77704933       5.00596156
Si       5.16333822       3.64536762       4.86265270
Si       5.16333822       5.78365288       7.27609015
Si       5.16333822       3.64536762       7.27609015
Si       5.16333822       5.78365288       4.86265270
Si       4.07349947       7.62468031       5.00722451
Si       4.07349947       1.80434019       7.13151834
Si       4.07349947       7.62468031       7.13151834
Si       4.07349947       1.80434019       5.00722451
Si       4.05795246       8.37062743       9.12036924
Si       4.05795246       1.05839307       3.01837361
Si       4.05795246       8.37062743       3.01837361
Si       4.05795246       1.05839307       9.12036924
Si       2.72338712       9.42902050      10.38001853
Si       2.72338712      -0.00000000       1.75872432
18
Lattice="6.156183403278565 -1.6836945974363332e-24 -5.453144862047308e-29 2.3780895768832985e-24 9.417758279250883 -1.0999081499762424e-15 9.585987382079275e-29 1.4207756706985586e-15 12.165539023177258" Properties=species:S:1:pos:R:3 unique_starting_index=81 config_type=initial n_minim_iter=10 stress="0.007627436056535123 2.6139703993138773e-15 -1.0168392519976638e-16 2.6139703993138773e-15 0.018935760030498596 -2.900100415188115e-16 -1.0168392519976638e-16 -2.900100415188115e-16 0.008057263847113527" pbc="T T T"
Si       3.00580713       3.64233184       5.02170296
Si       3.00580713       5.77542644       7.14383606
Si       3.00580713       3.64233184       7.14383606
Si       3.00580713       5.77542644       5.02170296
Si       5.15134298       3.63778167       4.89544917
Si       5.15134298       5.77997661       7.27008986
Si       5.15134298       3.63778167       7.27008986
Si       5.15134298       5.77997661       4.89544917
Si       4.06052023       7.61891199       5.02064900
Si       4.06052023       1.79884629       7.14489003
Si       4.06052023       7.61891199       7.14489003
Si       4.06052023       1.79884629       5.02064900
Si       4.07867308       8.35834509       9.13611492
Si       4.07867308       1.05941319       3.02942410
Si       4.07867308       8.35834509       3.02942410
Si       4.07867308       1.05941319       9.13611492
Si       2.73535715       9.41775828      10.39548658
Si       2.73535715      -0.00000000       1.77005245
18
Lattice="6.134888331045922 -1.7053076338998326e-24 -5.462937547982612e-29 2.3146283846696406e-24 9.336812071014451 -1.0904372146065143e-15 9.639906597399684e-29 1.4346160325221484e-15 12.28385362987745" Properties=species:S:1:pos:R:3 unique_starting_index=81 config_type=initial n_minim_iter=11 stress="0.0007500203274287224 5.673306096619836e-15 -1.462445773369172e-15 5.673306096619836e-15 0.028419526995578332 -3.86626752724461e-16 -1.462445773369172e-15 -3.86626752724461e-16 0.0315014736866288" pbc="T T T"
Si       2.93994658       3.59971625       5.08695260
Si       2.93994658       5.73709583       7.19690103
Si       2.93994658       3.59971625       7.19690103
Si       2.93994658       5.73709583       5.08695260
Si       5.08432105       3.59642484       5.06636391
Si       5.08432105       5.74038723       7.21748972
Si       5.08432105       3.59642484       7.21748972
Si       5.08432105       5.74038723       5.06636391
Si       3.99256115       7.57717538       5.08034003
Si       3.99256115       1.75963669       7.20351360
Si       3.99256115       7.57717538       7.20351360
Si       3.99256115       1.75963669       5.08034003
Si       4.17803778       8.27530855       9.21225115
Si       4.17803778       1.06150353       3.07160248
Si       4.17803778       8.27530855       3.07160248
Si       4.17803778       1.06150353       9.21225115
Si       2.81610637       9.33681207      10.44384302
Si       2.81610637      -0.00000000       1.84001061
18
Lattice="6.134723960727639 -1.713010553692295e-24 -5.568100439350828e-29 2.302288229752689e-24 9.335061600359268 -1.0902332999841703e-15 9.434625584567331e-29 1.4348686845909786e-15 12.286022754608199" Properties=species:S:1:pos:R:3 unique_starting_index=81 config_type=initial n_minim_iter=12 stress="0.0005347554020990299 5.525738694555272e-15 -3.740789755753779e-15 5.525738694555272e-15 0.02845932631659891 -5.499352195290571e-16 -3.740789755753779e-15 -5.499352195290571e-16 0.02781017425653608" pbc="T T T"
Si       2.93853294       3.59876713       5.08810922
Si       2.93853294       5.73629447       7.19791354
Si       2.93853294       3.59876713       7.19791354
Si       2.93853294       5.73629447       5.08810922
Si       5.08283336       3.59555941       5.07041613
Si       5.08283336       5.73950219       7.21560663
Si       5.08283336       3.59555941       7.21560663
Si       5.08283336       5.73950219       5.07041613
Si       3.99122771       7.57625662       5.08144850
Si       3.99122771       1.75880498       7.20457425
Si       3.99122771       7.57625662       7.20457425
Si       3.99122771       1.75880498       5.08144850
Si       4.18071622       8.27353409       9.21356700
Si       4.18071622       1.06152751       3.07245575
Si       4.18071622       8.27353409       3.07245575
Si       4.18071622       1.06152751       9.21356700
Si       2.81827577       9.33506160      10.44447603
Si       2.81827577      -0.00000000       1.84154673
18
Lattice="6.15240397741201 -1.7307609679550054e-24 -5.696205124496873e-29 2.280346029364732e-24 9.329421339670974 -1.0895598423891005e-15 9.152961749603231e-29 1.4280025899045323e-15 12.227069712077935" Properties=species:S:1:pos:R:3 unique_starting_index=81 config_type=initial n_minim_iter=13 stress="-0.014071855152044501 5.529654344206887e-15 -2.231475738685894e-15 5.529654344206887e-15 -0.01766103592581157 -4.2819652371704156e-16 -2.231475738685894e-15 -4.2819652371704156e-16 0.0023870366831769776" pbc="T T T"
Si       2.94903920       3.60239489       5.04923842
Si       2.94903920       5.72702645       7.17783129
Si       2.94903920       3.60239489       7.17783129
Si       2.94903920       5.72702645       5.04923842
Si       5.08057767       3.60061993       5.04338232
Si       5.08057767       5.72880141       7.18368739
Si       5.08057767       3.60061993       7.18368739
Si       5.08057767       5.72880141       5.04338232
Si       4.01246732       7.56663123       5.05244427
Si       4.01246732       1.76279011       7.17462544
Si       4.01246732       7.56663123       7.17462544
Si       4.01246732       1.76279011       5.05244427
Si       4.18957269       8.27017884       9.17274759
Si       4.18957269       1.05924250       3.05432213
Si       4.18957269       8.27017884       3.05432213
Si       4.18957269       1.05924250       9.17274759
Si       2.84304152       9.32942134      10.39562161
Si       2.84304152      -0.00000000       1.83144810
18
Lattice="6.181498527749907 -1.7336574454858522e-24 -5.77994618754102e-29 2.2980134235389604e-24 9.369140947044784 -1.094201889265478e-15 8.977248126523776e-29 1.4214619342827886e-15 12.171100152721614" Properties=species:S:1:pos:R:3 unique_starting_index=81 config_type=initial n_minim_iter=14 stress="-0.004532641434601676 4.1993430752072325e-15 -2.116673170676688e-15 4.1993430752072325e-15 0.0014362543848343453 -1.1009148304418661e-15 -2.116673170676688e-15 -1.1009148304418661e-15 0.0009279863174114694" pbc="T T T"
Si       2.96634787       3.61986053       5.01366009
Si       2.96634787       5.74928042       7.15744006
Si       2.96634787       3.61986053       7.15744006
Si       2.96634787       5.74928042       5.01366009
Si       5.10188705       3.62048867       5.01671131
Si       5.10188705       5.74865228       7.15438885
Si       5.10188705       3.62048867       7.15438885
Si       5.10188705       5.74865228       5.01671131
Si       4.02979258       7.59095099       5.02426438
Si       4.02979258       1.77818995       7.14683578
Si       4.02979258       7.59095099       7.14683578
Si       4.02979258       1.77818995       5.02426438
Si       4.20777671       8.31161563       9.13470851
Si       4.20777671       1.05752532       3.03639164
Si       4.20777671       8.31161563       3.03639164
Si       4.20777671       1.05752532       9.13470851
Si       2.86170964       9.36914095      10.35950025
Si       2.86170964      -0.00000000       1.81159991
18
Lattice="6.215364397745753 -1.742063006099612e-24 -5.852386784458184e-29 2.3035509307500968e-24 9.389086580993427 -1.0965312802380408e-15 8.839120943535092e-29 1.4159842164725485e-15 12.12419607126637" Properties=species:S:1:pos:R:3 unique_starting_index=81 config_type=initial n_minim_iter=15 stress="0.0018426227654207426 3.569002611349017e-15 -1.794648747232893e-15 3.569002611349017e-15 0.00241476131399158 -1.1704066294522842e-15 -1.794648747232893e-15 -1.1704066294522842e-15 -0.0036020345318283423" pbc="T T T"
Si       2.98304958       3.63132418       4.99606235
Si       2.98304958       5.75776240       7.12813373
Si       2.98304958       3.63132418       7.12813373
Si       2.98304958       5.75776240       4.99606235
Si       5.12628585       3.62904701       4.99424399
Si       5.12628585       5.76003957       7.12995208
Si       5.12628585       3.62904701       7.12995208
Si       5.12628585       5.76003957       4.99424399
Si       4.05275923       7.59639354       4.99979307
Si       4.05275923       1.79269304       7.12440300
Si       4.05275923       7.59639354       7.12440300
Si       4.05275923       1.79269304       4.99979307
Si       4.23047229       8.33024112       9.10835290
Si       4.23047229       1.05884546       3.01584317
Si       4.23047229       8.33024112       3.01584317
Si       4.23047229       1.05884546       9.10835290
Si       2.88252775       9.38908658      10.33169951
Si       2.88252775      -0.00000000       1.79249656
18
Lattice="6.2114684163721 -1.742390463537883e-24 -5.891421358248616e-29 2.304506375410022e-24 9.39960122375435 -1.0977601472313827e-15 8.719448148267509e-29 1.4113645390473577e-15 12.084649433466103" Properties=species:S:1:pos:R:3 unique_starting_index=81 config_type=initial n_minim_iter=16 stress="-0.0022491925584403397 3.5521541590632253e-15 -2.1795622100877555e-15 3.5521541590632253e-15 -0.0071861383393656475 -5.651519960073744e-16 -2.1795622100877555e-15 -5.651519960073744e-16 0.0005500468136989805" pbc="T T T"
Si       2.97518477       3.63507351       4.97494125
Si       2.97518477       5.76452771       7.10970819
Si       2.97518477       3.63507351       7.10970819
Si       2.97518477       5.76452771       4.97494125
Si       5.11548276       3.63707176       4.97382099
Si       5.11548276       5.76252946       7.11082844
Si       5.11548276       3.63707176       7.11082844
Si       5.11548276       5.76252946       4.97382099
Si       4.04636249       7.59968475       4.98064386
Si       4.04636249       1.79991648       7.10400557
Si       4.04636249       7.59968475       7.10400557
Si       4.04636249       1.79991648       4.98064386
Si       4.24038871       8.34171504       9.08654996
Si       4.24038871       1.05788619       2.99809947
Si       4.24038871       8.34171504       2.99809947
Si       4.24038871       1.05788619       9.08654996
Si       2.89046660       9.39960122      10.32236119
Si       2.89046660      -0.00000000       1.76228824
18
Lattice="6.202976130723297 -1.741883210591707e-24 -5.890196692864893e-29 2.3021103780936238e-24 9.399739401273601 -1.0977762050205993e-15 8.70942140610622e-29 1.411330239447609e-15 12.084354863767619" Properties=species:S:1:pos:R:3 unique_starting_index=81 config_type=initial n_minim_iter=17 stress="0.00017366756675831242 3.341878901902716e-15 -5.1243809126635254e-15 3.341878901902716e-15 0.0010377810069047179 -1.3355391658573833e-15 -5.1243809126635254e-15 -1.3355391658573833e-15 0.003917249639096727" pbc="T T T"
Si       2.96618562       3.63557957       4.97440462
Si       2.96618562       5.76415983       7.10995025
Si       2.96618562       3.63557957       7.10995025
Si       2.96618562       5.76415983       4.97440462
Si       5.10531662       3.63604309       4.97354954
Si       5.10531662       5.76369631       7.11080532
Si       5.10531662       3.63604309       7.11080532
Si       5.10531662       5.76369631       4.97354954
Si       4.03590999       7.60169966       4.98031667
Si       4.03590999       1.79803974       7.10403819
Si       4.03590999       7.60169966       7.10403819
Si       4.03590999       1.79803974       4.98031667
Si       4.24427719       8.34113026       9.08616113
Si       4.24427719       1.05860914       2.99819374
Si       4.24427719       8.34113026       2.99819374
Si       4.24427719       1.05860914       9.08616113
Si       2.89319116       9.39973940      10.32791978
Si       2.89319116      -0.00000000       1.75643508
18
Lattice="6.198044756905796 -1.744749568775898e-24 -5.878601803462779e-29 2.2927394783375016e-24 9.3886007258166 -1.0964791124382347e-15 8.736292134016622e-29 1.4126990926447558e-15 12.09611736874483" Properties=species:S:1:pos:R:3 unique_starting_index=81 config_type=initial n_minim_iter=18 stress="0.0005356359303294127 3.2859981434931338e-15 -5.311883046890271e-15 3.2859981434931338e-15 0.0045632843881290314 -1.223072901226116e-15 -5.311883046890271e-15 -1.223072901226116e-15 0.002378446858411464" pbc="T T T"
Si       2.95735397       3.63127812       4.98009591
Si       2.95735397       5.75732261       7.11602146
Si       2.95735397       3.63127812       7.11602146
Si       2.95735397       5.75732261       4.98009591
Si       5.09664329       3.62964217       4.97980686
Si       5.09664329       5.75895856       7.11631051
Si       5.09664329       3.62964217       7.11631051
Si       5.09664329       5.75895856       4.97980686
Si       4.02628794       7.59727095       4.98570855
Si       4.02628794       1.79132977       7.11040882
Si       4.02628794       7.59727095       7.11040882
Si       4.02628794       1.79132977       4.98570855
Si       4.25214120       8.32923331       9.09174897
Si       4.25214120       1.05936742       3.00436840
Si       4.25214120       8.32923331       3.00436840
Si       4.25214120       1.05936742       9.09174897
Si       2.90341790       9.38860073      10.33471776
Si       2.90341790      -0.00000000       1.76139961
18
Lattice="6.201126845548153 -1.7614584383317414e-24 -5.863315136147569e-29 2.2550656022262882e-24 9.341392184963395 -1.0909736181283283e-15 8.790256471150066e-29 1.4150961646829171e-15 12.116729889990305" Properties=species:S:1:pos:R:3 unique_starting_index=81 config_type=initial n_minim_iter=19 stress="0.006495787792190804 2.5718893078405223e-15 -6.494499110469461e-15 2.5718893078405223e-15 0.0004881478569921681 -8.6235211321352e-16 -6.494499110469461e-15 -8.6235211321352e-16 0.006334026801879976" pbc="T T T"
Si       2.92379244       3.60880137       4.99049059
Si       2.92379244       5.73259082       7.12623930
Si       2.92379244       3.60880137       7.12623930
Si       2.92379244       5.73259082       4.99049059
Si       5.06741786       3.60596124       4.99105759
Si       5.06741786       5.73543095       7.12567230
Si       5.06741786       3.60596124       7.12567230
Si       5.06741786       5.73543095       4.99105759
Si       3.99585406       7.57291666       4.99524081
Si       3.99585406       1.76847552       7.12148908
Si       3.99585406       7.57291666       7.12148908
Si       3.99585406       1.76847552       4.99524081
Si       4.31805298       8.28202283       9.09751279
Si       4.31805298       1.05936936       3.01921710
Si       4.31805298       8.28202283       3.01921710
Si       4.31805298       1.05936936       9.09751279
Si       2.97572298       9.34139218      10.35350986
Si       2.97572298      -0.00000000       1.76322003
18
Lattice="6.2177125973336675 -1.769681254294066e-24 -5.927056040030693e-29 2.2546310308622004e-24 9.362528292881358 -1.0934430938129701e-15 8.644538606532171e-29 1.40965715635432e-15 12.07016978677851" Properties=species:S:1:pos:R:3 unique_starting_index=81 config_type=initial n_minim_iter=20 stress="7.466817682884701e-05 2.381885779579955e-15 -3.1695966011448434e-15 2.381885779579955e-15 0.0024991067291833292 7.538270640074695e-16 -3.1695966011448434e-15 7.538270640074695e-16 -0.0007008502451680199" pbc="T T T"
Si       2.91006952       3.61796499       4.96881376
Si       2.91006952       5.74456330       7.10135602
Si       2.91006952       3.61796499       7.10135602
Si       2.91006952       5.74456330       4.96881376
Si       5.05192853       3.61649712       4.96669612
Si       5.05192853       5.74603117       7.10347367
Si       5.05192853       3.61649712       7.10347367
Si       5.05192853       5.74603117       4.96669612
Si       3.98468672       7.58357228       4.97259040
Si       3.98468672       1.77895601       7.09757938
Si       3.98468672       7.58357228       7.09757938
Si       3.98468672       1.77895601       4.97259040
Si       4.37129522       8.30279396       9.05974772
Si       4.37129522       1.05973433       3.01042206
Si       4.37129522       8.30279396       3.01042206
Si       4.37129522       1.05973433       9.05974772
Si       3.04517715       9.36252829      10.31873803
Si       3.04517715      -0.00000000       1.75143176
18
Lattice="6.2138023886107305 -1.7737078930265334e-24 -5.940644030445316e-29 2.24617942997231e-24 9.359625757464922 -1.0931074230657184e-15 8.605263352315361e-29 1.4087930078781184e-15 12.062806972776482" Properties=species:S:1:pos:R:3 unique_starting_index=81 config_type=initial n_minim_iter=21 stress="-0.0005867451300913069 2.4272830025972205e-15 -3.3949545347879874e-15 2.4272830025972205e-15 0.0003172937230591995 4.3614543178294544e-16 -3.3949545347879874e-15 4.3614543178294544e-16 0.003105928082125972" pbc="T T T"
Si       2.89002087       3.61491204       4.96471332
Si       2.89002087       5.74471372       7.09809365
Si       2.89002087       3.61491204       7.09809365
Si       2.89002087       5.74471372       4.96471332
Si       5.03257666       3.61612481       4.96196949
Si       5.03257666       5.74350094       7.10083748
Si       5.03257666       3.61612481       7.10083748
Si       5.03257666       5.74350094       4.96196949
Si       3.96507702       7.58157771       4.96924315
Si       3.96507702       1.77804805       7.09356382
Si       3.96507702       7.58157771       7.09356382
Si       3.96507702       1.77804805       4.96924315
Si       4.40076315       8.30048912       9.04730783
Si       4.40076315       1.05913664       3.01549915
Si       4.40076315       8.30048912       3.01549915
Si       4.40076315       1.05913664       9.04730783
Si       3.08182249       9.35962576      10.31449404
Si       3.08182249      -0.00000000       1.74831293
