22
Lattice="5.490597752041961 -0.17045684110990764 0.03490599790495862 2.660921473725022 6.297868047044666 0.1660524578475595 1.0748244387573032 0.682520789100031 16.213634816207808" Properties=species:S:1:pos:R:3 unique_starting_index=40 config_type=initial n_minim_iter=1 energy=-3594.8602996478908 free_energy=-3594.8602996478908 pbc="T T T"
Si       5.57161174       2.66244984      12.49562706
Si       1.42995169       3.71673591       4.92658567
Si       5.38666829       0.61101596       7.30060148
Si       4.06685392       3.74870075      13.51760335
Si       3.66379199       2.64386148      15.28667775
Si       6.82450823       5.55518974       6.38633616
Si       5.77661344       2.52662964       1.82005220
Si       5.26496897       4.67975714       9.56931185
Si       4.13262638       2.43341106       0.45816089
Si       4.38368330       4.62455999      15.42611881
Si       5.24562780       2.72576414      10.40550714
Si       4.69162415       4.37106912      11.59694620
Si       2.14420406       3.08888365       0.80888900
Si       1.00300669      -0.62583175       8.40138966
Si       1.67219351       2.71640090      16.01900954
Si       7.03221797       5.46308692       8.62522902
Si       3.34407381       2.70763109       4.41537466
Si       4.19205527       6.06823904       6.53690492
Si       5.23052694       3.35204817       3.69785796
Si       5.68017920       0.92056725       9.37782433
Si       5.65183521       2.92657011      14.61054286
Si       5.37102316       1.38358044       5.32759517
22
Lattice="5.4895079537637725 -0.17044593418129947 0.03445248440108661 2.6603913269047945 6.297870864362889 0.16619051135070284 1.0733357891277706 0.683542817563758 16.20878717080447" Properties=species:S:1:pos:R:3 unique_starting_index=40 config_type=initial n_minim_iter=2 stress="-0.0016108992805182534 0.0001321145235892199 0.0003240608081105561 0.0001321145235892199 -0.001423673719051697 -0.00041186615089253744 0.0003240608081105561 -0.00041186615089253744 -0.00149372913025795" pbc="T T T"
Si       5.56952485       2.66324055      12.49167609
Si       1.42929300       3.71703457       4.92524104
Si       5.38509910       0.61148443       7.29798234
Si       4.06494968       3.74955421      13.51350036
Si       3.66192521       2.64484208      15.28208010
Si       6.82270954       5.55560468       6.38429155
Si       5.77531811       2.52673519       1.81921747
Si       5.26318465       4.68036243       9.56632740
Si       4.13176762       2.43341317       0.45786432
Si       4.38161976       4.62555700      15.42147441
Si       5.24377800       2.72641720      10.40217686
Si       4.68980741       4.37181949      11.59338567
Si       2.14365745       3.08892802       0.80865240
Si       1.00214917      -0.62528580       8.39870810
Si       1.67054840       2.71742710      16.01425868
Si       7.03011432       5.46359889       8.62250237
Si       3.34305454       2.70789346       4.41396858
Si       4.19064379       6.06867340       6.53510075
Si       5.22922474       3.35227017       3.69656671
Si       5.67831880       0.92119816       9.37465747
Si       5.64965797       2.92747805      14.60598024
Si       5.36952528       1.38388042       5.32570413
22
Lattice="5.490310200921527 -0.1707591501895214 0.03285448380719903 2.6604614224770193 6.300937375542405 0.16718211430557423 1.0688961355744595 0.6883632499226934 16.206985985822136" Properties=species:S:1:pos:R:3 unique_starting_index=40 config_type=initial n_minim_iter=3 stress="0.0017413919393443461 -0.00038377934371307184 -0.001948406704339553 -0.00038377934371307184 0.0005922835002711413 0.0011128607485726126 -0.001948406704339553 0.0011128607485726126 -0.0012145922072037253" pbc="T T T"
Si       5.56671271       2.66777686      12.48970390
Si       1.42807008       3.72016746       4.92538659
Si       5.38417702       0.61364669       7.29558710
Si       4.06132353       3.75505161      13.51187004
Si       3.65832835       2.65031330      15.28051138
Si       6.82190605       5.55988345       6.38343021
Si       5.77548341       2.52816747       1.81813790
Si       5.26110216       4.68514485       9.56499583
Si       4.13208798       2.43438862       0.45750383
Si       4.37777968       4.63218108      15.41981837
Si       5.24151642       2.73040853      10.40032226
Si       4.68713461       4.37717421      11.59189642
Si       2.14324660       3.09061297       0.80873310
Si       0.99999926      -0.62322569       8.39698011
Si       1.66586248       2.72325594      16.01266213
Si       7.02820648       5.46823415       8.62137981
Si       3.34206208       2.71022286       4.41331404
Si       4.18877204       6.07346979       6.53534153
Si       5.22887914       3.35467803       3.69561610
Si       5.67648551       0.92423282       9.37241611
Si       5.64677043       2.93268943      14.60373796
Si       5.36864796       1.38563566       5.32402248
22
Lattice="5.48826181862638 -0.17047938780242833 0.034190587892256125 2.6599174056879775 6.3039078371301365 0.16794124997397952 1.0724688691258566 0.6889362378591118 16.210814064705776" Properties=species:S:1:pos:R:3 unique_starting_index=40 config_type=initial n_minim_iter=4 stress="-0.0023613269856729083 0.0003764121951493538 0.0005960323019793992 0.0003764121951493538 0.0018056064577793912 0.00028912675949848565 0.0005960323019793992 0.00028912675949848565 0.0010488520355361676" pbc="T T T"
Si       5.56776370       2.66947625      12.49415713
Si       1.42924323       3.72191988       4.92694832
Si       5.38462198       0.61437457       7.29812072
Si       4.06294859       3.75715954      13.51559998
Si       3.66134520       2.65203078      15.28537629
Si       6.82172715       5.56293839       6.38689056
Si       5.77386689       2.52954087       1.82005766
Si       5.26185451       4.68766492       9.56815943
Si       4.13069937       2.43542393       0.45892996
Si       4.38030113       4.63505427      15.42411430
Si       5.24229317       2.73202742      10.40378806
Si       4.68866724       4.37979915      11.59530126
Si       2.14223166       3.09211725       0.80925088
Si       1.00158308      -0.62312423       8.39845270
Si       1.66888815       2.72488799      16.01630310
Si       7.02759890       5.47088931       8.62546690
Si       3.34190541       2.71152601       4.41508976
Si       4.18849378       6.07677034       6.53856606
Si       5.22805931       3.35639227       3.69765561
Si       5.67677650       0.92540099       9.37595655
Si       5.64915903       2.93441131      14.60843981
Si       5.36783510       1.38638830       5.32632889
22
Lattice="5.490565431249157 -0.17073589751378623 0.03481786941250572 2.6606724846068452 6.300937463359863 0.1669750685737836 1.0746506909751181 0.6854156728094243 16.207714565627946" Properties=species:S:1:pos:R:3 unique_starting_index=40 config_type=initial n_minim_iter=5 stress="0.0008618876981372924 0.0004407188940688309 0.0009540388532962793 0.0004407188940688309 0.00022326614890219335 -0.0013078310592712268 0.0009540388532962793 -0.0013078310592712268 -0.001243710908772267" pbc="T T T"
Si       5.57112908       2.66565066      12.49216130
Si       1.43044258       3.71917734       4.92554148
Si       5.38789715       0.61251158       7.29717177
Si       4.06554234       3.75261243      13.51256416
Si       3.66489432       2.64786677      15.28293634
Si       6.82552505       5.55898529       6.38577291
Si       5.77622825       2.52756299       1.81999840
Si       5.26483556       4.68330705       9.56576668
Si       4.13212257       2.43378471       0.45900305
Si       4.38370713       4.62996332      15.42052092
Si       5.24550115       2.72850677      10.40172176
Si       4.69188934       4.37549763      11.59242315
Si       2.14243437       3.09043291       0.80841973
Si       1.00283556      -0.62421295       8.39665892
Si       1.67096602       2.72056238      16.01270675
Si       7.03077325       5.46607478       8.62395453
Si       3.34345065       2.70908297       4.41405239
Si       4.19022422       6.07264887       6.53705089
Si       5.23047916       3.35370367       3.69676886
Si       5.68024556       0.92296598       9.37451259
Si       5.65356540       2.92987127      14.60577807
Si       5.37036138       1.38417456       5.32529813
22
Lattice="5.489730464513717 -0.1716304418868898 0.03420212844030643 2.6590972868422815 6.297133410139939 0.16819553985081254 1.0726214200271653 0.6885893804023331 16.213200832702455" Properties=species:S:1:pos:R:3 unique_starting_index=40 config_type=initial n_minim_iter=6 stress="-0.0007191014260589832 -0.00041284141261803517 -0.00040364318394004155 -0.00041284141261803517 -0.0013389028206486587 -0.0007887176026741668 -0.00040364318394004155 -0.0007887176026741668 0.0011695993148283187" pbc="T T T"
Si       5.56818953       2.66628786      12.49662630
Si       1.42925290       3.71798572       4.92793628
Si       5.38617180       0.61333722       7.29947636
Si       4.06234301       3.75292845      13.51737587
Si       3.66283044       2.64953623      15.28882575
Si       6.82343652       5.55636737       6.38895193
Si       5.77451971       2.52536269       1.82072328
Si       5.26202176       4.68192935       9.56916958
Si       4.13067877       2.43168803       0.45947202
Si       4.38077889       4.63041287      15.42606898
Si       5.24312953       2.72853834      10.40515966
Si       4.68946403       4.37512911      11.59645185
Si       2.14081628       3.08858273       0.80883958
Si       1.00165276      -0.62180496       8.39893457
Si       1.66842242       2.72257050      16.01834072
Si       7.02749849       5.46354176       8.62783899
Si       3.34183581       2.70783775       4.41572472
Si       4.18768017       6.07007315       6.54042010
Si       5.22871683       3.35159157       3.69823784
Si       5.67834935       0.92372980       9.37710482
Si       5.65108825       2.93060162      14.61082804
Si       5.36842961       1.38341645       5.32632045
22
Lattice="5.4902040058212975 -0.17118259946803796 0.03626121516873523 2.6598918301686965 6.2976371706571594 0.17237180580331304 1.0791143298928227 0.6968230575914136 16.211867139059557" Properties=species:S:1:pos:R:3 unique_starting_index=40 config_type=initial n_minim_iter=7 stress="0.0003801485034173941 -3.442692652785123e-05 0.0013990535815435563 -3.442692652785123e-05 -0.0010602528166702505 0.0013311939807698016 0.0013990535815435563 0.0013311939807698016 -3.72641958348444e-05" pbc="T T T"
Si       5.57333235       2.67337818      12.49875818
Si       1.43189611       3.72055095       4.92971005
Si       5.38949392       0.61865180       7.30158898
Si       4.06763194       3.76003828      13.51895870
Si       3.67016080       2.65786443      15.29029028
Si       6.82787608       5.56023856       6.39421253
Si       5.77562841       2.52643311       1.82426380
Si       5.26622541       4.68718844       9.57176835
Si       4.13103402       2.43215051       0.46241379
Si       4.38798291       4.63884507      15.42769870
Si       5.24799795       2.73422344      10.40731116
Si       4.69529985       4.38172078      11.59838154
Si       2.14077093       3.08936014       0.81065018
Si       1.00462378      -0.61718325       8.39770908
Si       1.67510707       2.73084241      16.01806222
Si       7.03168808       5.46812350       8.63293534
Si       3.34386761       2.71006192       4.41768479
Si       4.19115229       6.07366010       6.54438470
Si       5.23106823       3.35359576       3.70157460
Si       5.68285032       0.92909604       9.37825787
Si       5.65801614       2.93847771      14.61284388
Si       5.37065157       1.38608036       5.32768120
22
Lattice="5.489582996991494 -0.17055778275242975 0.0362905684674814 2.660404967873439 6.300592891861438 0.17162184463062735 1.0791176194821543 0.6953275778795612 16.210776267446334" Properties=species:S:1:pos:R:3 unique_starting_index=40 config_type=initial n_minim_iter=8 stress="0.00031784061933791245 4.7624156664764884e-05 -9.636276689404142e-05 4.7624156664764884e-05 0.0012879160014870284 -0.0006482536287854659 -9.636276689404142e-05 -0.0006482536287854659 0.0003995475570535688" pbc="T T T"
Si       5.57263274       2.67398130      12.49784006
Si       1.43238149       3.72153633       4.92882228
Si       5.38880812       0.62002029       7.30156698
Si       4.06700993       3.76048683      13.51759349
Si       3.67082118       2.65784249      15.28978109
Si       6.82896675       5.56270704       6.39396369
Si       5.77486952       2.52755772       1.82411000
Si       5.26570056       4.68864943       9.56994812
Si       4.13060245       2.43347509       0.46231981
Si       4.38858769       4.63970207      15.42563386
Si       5.24795083       2.73465957      10.40659075
Si       4.69593980       4.38311794      11.59648562
Si       2.14019035       3.09097606       0.80972360
Si       1.00408238      -0.61805760       8.39725476
Si       1.67548534       2.73029734      16.01658630
Si       7.03155431       5.46981037       8.63250676
Si       3.34360474       2.71070522       4.41695394
Si       4.19156412       6.07576123       6.54327345
Si       5.23133996       3.35483389       3.70117586
Si       5.68266646       0.92931409       9.37728511
Si       5.65825528       2.93876595      14.61180410
Si       5.36976897       1.38618627       5.32636550
22
Lattice="5.49053544699426 -0.1677510045601638 0.0406030478409978 2.664170170765465 6.300636633508965 0.17911203831103162 1.0928070121324032 0.7094014003760357 16.213537899800894" Properties=species:S:1:pos:R:3 unique_starting_index=40 config_type=initial n_minim_iter=9 stress="0.0007592223033185524 0.0005325753737334544 -0.0005943872495251794 0.0005325753737334544 0.0005745163028410326 0.00021673797375497384 -0.0005943872495251794 0.00021673797375497384 0.0011157432619278492" pbc="T T T"
Si       5.58374959       2.68725051      12.50574636
Si       1.43858454       3.72489347       4.93264033
Si       5.39472827       0.63167480       7.30647890
Si       4.07786054       3.77329639      13.52540850
Si       3.68631490       2.67222861      15.29841918
Si       6.84307635       5.57086976       6.40829811
Si       5.77643084       2.52946442       1.83179498
Si       5.27389093       4.69802342       9.57634668
Si       4.13269353       2.43524265       0.46893131
Si       4.40606147       4.65418220      15.43206337
Si       5.25937161       2.74479665      10.41525348
Si       4.71043530       4.39570651      11.60254675
Si       2.14082908       3.09306801       0.81243748
Si       1.00970913      -0.61002354       8.39887584
Si       1.69111866       2.74372409      16.02139723
Si       7.04361242       5.47907603       8.64508059
Si       3.34836530       2.71398827       4.42168935
Si       4.19995375       6.08209384       6.55231932
Si       5.23881655       3.35828881       3.70994225
Si       5.69293739       0.94117197       9.38367787
Si       5.67406266       2.95393912      14.62024149
Si       5.37390698       1.39062079       5.33011906
22
Lattice="5.491182662181656 -0.16991344591923627 0.042911557940821805 2.6620752443118705 6.301321191773484 0.182144134510185 1.0996455491967598 0.7141075311752147 16.210776403121443" Properties=species:S:1:pos:R:3 unique_starting_index=40 config_type=initial n_minim_iter=10 stress="-0.00015653672871622623 -0.002698423591157477 3.6919573322742203e-05 -0.002698423591157477 0.0010023483756175194 0.0003184672252934847 3.6919573322742203e-05 0.0003184672252934847 -0.00021435115634821494" pbc="T T T"
Si       5.58834458       2.68946475      12.50664224
Si       1.43925878       3.72651693       4.93283988
Si       5.39793914       0.63261334       7.30841943
Si       4.08147611       3.77732249      13.52539716
Si       3.69291889       2.67600066      15.29849101
Si       6.84665119       5.57161927       6.41317584
Si       5.77561497       2.52740504       1.83479742
Si       5.27560282       4.69975206       9.57682777
Si       4.13242051       2.43452644       0.47160311
Si       4.41229555       4.65834840      15.43091367
Si       5.26363727       2.74632329      10.41660009
Si       4.71491331       4.39940567      11.60275560
Si       2.13945388       3.09390700       0.81340881
Si       1.01319307      -0.60775733       8.39749021
Si       1.69727425       2.74858182      16.01979478
Si       7.04654689       5.48098132       8.64820191
Si       3.34960342       2.71411839       4.42254845
Si       4.20011086       6.08445610       6.55452202
Si       5.24028129       3.35738050       3.71345870
Si       5.69762545       0.94280224       9.38432515
Si       5.68029190       2.95743546      14.62069853
Si       5.37531308       1.38954776       5.33017811
22
Lattice="5.491987020256544 -0.16681845946353346 0.04339720219861365 2.666042915822525 6.302229013372391 0.18451188022578627 1.1018047345117956 0.720058746041973 16.21106867984332" Properties=species:S:1:pos:R:3 unique_starting_index=40 config_type=initial n_minim_iter=11 stress="-4.573076409365355e-05 -0.00023576864009605133 -0.0009310117110947831 -0.00023576864009605133 0.00013880958669044096 0.0005636187409528608 -0.0009310117110947831 0.0005636187409528608 0.0002556674385407379" pbc="T T T"
Si       5.59161441       2.69639455      12.50848407
Si       1.44187058       3.72831518       4.93373663
Si       5.40010666       0.63866279       7.31016584
Si       4.08463557       3.78426117      13.52681680
Si       3.69712559       2.68260610      15.30052798
Si       6.85355640       5.57675167       6.41707398
Si       5.77692357       2.52993906       1.83625884
Si       5.27899400       4.70489919       9.57775735
Si       4.13445264       2.43704427       0.47292485
Si       4.41807284       4.66524815      15.43178259
Si       5.26730645       2.75219516      10.41832439
Si       4.71987246       4.40615134      11.60428480
Si       2.14108991       3.09566282       0.81398899
Si       1.01342633      -0.60393707       8.39756689
Si       1.70058458       2.75453721      16.02115923
Si       7.05194874       5.48782150       8.65093539
Si       3.35220576       2.71658303       4.42329042
Si       4.20393711       6.08892665       6.55678053
Si       5.24390561       3.36029977       3.71612653
Si       5.70039017       0.94967725       9.38503476
Si       5.68471556       2.96570125      14.62239388
Si       5.37661370       1.39324271       5.32968293
22
Lattice="5.493418963454334 -0.1664498077660499 0.04548567273963913 2.6672176848448226 6.302791451723666 0.18807834834194062 1.108506722513529 0.7266826766612736 16.210598064453098" Properties=species:S:1:pos:R:3 unique_starting_index=40 config_type=initial n_minim_iter=12 stress="0.0004870593609842238 -0.0005860089050367016 -0.0003149288692329655 -0.0005860089050367016 0.00026284026514144886 0.0005612944702296556 -0.0003149288692329655 0.0005612944702296556 3.833174106993694e-05" pbc="T T T"
Si       5.59734623       2.70170252      12.51235960
Si       1.44434239       3.73015155       4.93488174
Si       5.40482455       0.64478992       7.31201611
Si       4.09015010       3.79140974      13.52793378
Si       3.70583156       2.68823455      15.30318049
Si       6.86270357       5.57913738       6.42433354
Si       5.77707794       2.52895168       1.83923177
Si       5.28348705       4.70757835       9.57875026
Si       4.13524186       2.43876987       0.47538926
Si       4.42762927       4.67109193      15.43202139
Si       5.27340830       2.75648239      10.42103595
Si       4.72680153       4.41246872      11.60760935
Si       2.14114134       3.09734579       0.81474339
Si       1.01647505      -0.59950214       8.39780028
Si       1.70749227       2.76138772      16.02308956
Si       7.05660553       5.49309779       8.65614053
Si       3.35582981       2.71754706       4.42413605
Si       4.20640754       6.09343371       6.55900364
Si       5.24704429       3.35995787       3.72135566
Si       5.70640252       0.95531525       9.38713662
Si       5.69225522       2.97344711      14.62505039
Si       5.37837476       1.39330088       5.33033741
22
Lattice="5.491767534949479 -0.16537485126204038 0.047218937429424616 2.6677787241697004 6.305897762353447 0.19130060692145168 1.1136467989053611 0.7332679119477644 16.209498301813404" Properties=species:S:1:pos:R:3 unique_starting_index=40 config_type=initial n_minim_iter=13 stress="8.005624266583891e-05 0.000140288559208863 -9.81853257740131e-06 0.000140288559208863 -0.00021654714486914363 0.0003137983426572473 -9.81853257740131e-06 0.0003137983426572473 -0.000843341235357623" pbc="T T T"
Si       5.59881576       2.70846448      12.51512006
Si       1.44745412       3.73354724       4.93685549
Si       5.40576661       0.65243244       7.31426551
Si       4.09327160       3.79927908      13.52926983
Si       3.70998169       2.69453878      15.30392126
Si       6.87035222       5.58280501       6.43140407
Si       5.77490918       2.52916811       1.84164810
Si       5.28662449       4.71079807       9.57852659
Si       4.13372064       2.44222084       0.47892094
Si       4.43461066       4.67932734      15.43010353
Si       5.27643087       2.76202876      10.42421354
Si       4.73143520       4.42054666      11.61085509
Si       2.13953311       3.10031443       0.81536624
Si       1.01705049      -0.59374266       8.39675679
Si       1.71264515       2.76972178      16.02412714
Si       7.05733605       5.50337404       8.65989298
Si       3.35553758       2.71833903       4.42498719
Si       4.20648718       6.10100124       6.55930657
Si       5.24862184       3.36037782       3.72431325
Si       5.70885610       0.96218617       9.38873195
Si       5.69759673       2.98346313      14.62666132
Si       5.37624392       1.39337624       5.33031560
22
Lattice="5.490101387942221 -0.164753401678217 0.04824147448508455 2.6677333705388997 6.306739699264964 0.1925224132170949 1.1164570043549882 0.7352221135576518 16.212815165968117" Properties=species:S:1:pos:R:3 unique_starting_index=40 config_type=initial n_minim_iter=14 stress="6.063449465019261e-05 0.0006207227852985026 0.0003446808763572129 0.0006207227852985026 -0.0007648394046504226 2.5095664393667167e-05 0.0003446808763572129 2.5095664393667167e-05 -0.0009174025163600787" pbc="T T T"
Si       5.59890518       2.71023990      12.51953783
Si       1.44927042       3.73447574       4.93927601
Si       5.40534650       0.65679939       7.31739025
Si       4.09396938       3.80110757      13.53340628
Si       3.71284952       2.69690246      15.30724983
Si       6.87589335       5.58248256       6.43728372
Si       5.77348148       2.52824627       1.84371495
Si       5.28695001       4.71053551       9.57935874
Si       4.13137040       2.44388610       0.47980950
Si       4.43823204       4.68175179      15.43234782
Si       5.27749823       2.76341188      10.42889515
Si       4.73403634       4.42339897      11.61501138
Si       2.13835098       3.10192601       0.81552224
Si       1.01913234      -0.59128177       8.39804941
Si       1.71460081       2.77248209      16.02825842
Si       7.05580769       5.50914444       8.66343593
Si       3.35415292       2.71698865       4.42628025
Si       4.20502800       6.10428904       6.56023672
Si       5.24954007       3.35858628       3.72622827
Si       5.70955815       0.96557163       9.39245504
Si       5.69936360       2.98793934      14.63216698
Si       5.37360763       1.39201119       5.33060459
22
Lattice="5.486868604466707 -0.16663395393033018 0.047978305093750256 2.6639282544239893 6.304191249218281 0.19162309524999155 1.1147000368608002 0.7325925851211138 16.217784442738427" Properties=species:S:1:pos:R:3 unique_starting_index=40 config_type=initial n_minim_iter=15 stress="8.946925697460946e-05 0.0005959919802913062 0.0003653745182962385 0.0005959919802913062 -0.000727030151902531 -0.0007523415634328077 0.0003653745182962385 -0.0007523415634328077 0.0007873218083235638" pbc="T T T"
Si       5.59335068       2.70437347      12.52512467
Si       1.44758121       3.73235678       4.94213235
Si       5.40239016       0.66235785       7.32066156
Si       4.08661588       3.79503929      13.53627937
Si       3.70726038       2.69466656      15.31198420
Si       6.88136661       5.57118117       6.44274237
Si       5.76950513       2.52141658       1.84463690
Si       5.27891064       4.70171447       9.57716630
Si       4.12604035       2.44244473       0.48012911
Si       4.43475861       4.67793342      15.43492027
Si       5.27316553       2.75859194      10.43427269
Si       4.73253864       4.42003610      11.61757430
Si       2.13438332       3.10316692       0.81382909
Si       1.01999320      -0.58865173       8.39841432
Si       1.71096115       2.76955248      16.03334823
Si       7.04745748       5.51250368       8.66529705
Si       3.35031647       2.71007469       4.42541113
Si       4.19500273       6.10332069       6.55933802
Si       5.24609000       3.34758970       3.72784003
Si       5.70637326       0.96400303       9.39561872
Si       5.69524873       2.98798942      14.63576081
Si       5.36508912       1.38374198       5.32899641
22
Lattice="5.485461251296313 -0.16788152047558852 0.047170129562847996 2.6617723858970117 6.3035095014005105 0.19118572117346927 1.111851248351963 0.732153553251899 16.220623644947132" Properties=species:S:1:pos:R:3 unique_starting_index=40 config_type=initial n_minim_iter=16 stress="0.0003430150159692313 0.0010374750715723543 0.0009600045655340263 0.0010374750715723543 0.00017108145895659553 -0.0009815071656369859 0.0009600045655340263 -0.0009815071656369859 0.00126392045959845" pbc="T T T"
Si       5.58893590       2.70175039      12.52865402
Si       1.44610179       3.73186019       4.94483739
Si       5.40009973       0.66902288       7.32166479
Si       4.08037799       3.79245550      13.53522538
Si       3.70288047       2.69511450      15.31441674
Si       6.89035610       5.56307814       6.44771158
Si       5.76777867       2.51607874       1.84468274
Si       5.27283426       4.69639572       9.57389479
Si       4.12448500       2.44134912       0.47963020
Si       4.43131168       4.67859592      15.43645910
Si       5.26967011       2.75602505      10.43783544
Si       4.73229714       4.41824856      11.61974392
Si       2.13206305       3.10643431       0.81269157
Si       1.01741750      -0.58403508       8.39646901
Si       1.70497118       2.76868886      16.03623745
Si       7.04278384       5.51887125       8.66665886
Si       3.34673238       2.70438893       4.42433556
Si       4.18683675       6.10457602       6.55790415
Si       5.24522509       3.33839568       3.72908092
Si       5.70454257       0.96400043       9.39808329
Si       5.68965968       2.99132337      14.63845608
Si       5.35802953       1.37758550       5.32616195
22
Lattice="5.484934291284274 -0.1697947677151822 0.04534198824200304 2.659200353575366 6.301532913696836 0.19204307410828736 1.1062695445605555 0.7361992846761366 16.215566537102287" Properties=species:S:1:pos:R:3 unique_starting_index=40 config_type=initial n_minim_iter=17 stress="0.000898304504641853 0.0005902902110887381 0.0008894752450356141 0.0005902902110887381 0.0008592218706756563 -0.0002622551455098604 0.0008894752450356141 -0.0002622551455098604 0.0013677647465444218" pbc="T T T"
Si       5.58414751       2.70159442      12.52495007
Si       1.44400083       3.73199619       4.94629639
Si       5.39828235       0.67423865       7.31875597
Si       4.07293121       3.79486713      13.53005435
Si       3.69465859       2.69911650      15.30918984
Si       6.89605703       5.55620311       6.44837240
Si       5.76697786       2.51127709       1.84255484
Si       5.26667940       4.69596813       9.56648996
Si       4.12270391       2.44034367       0.47983585
Si       4.42397686       4.68099721      15.43066837
Si       5.26440431       2.75522249      10.43512001
Si       4.72947272       4.41767700      11.61660943
Si       2.13059229       3.10801722       0.81184789
Si       1.01362424      -0.57951480       8.39084787
Si       1.69869295       2.77120163      16.03129102
Si       7.03591343       5.52290702       8.66536991
Si       3.34247289       2.70021647       4.42200314
Si       4.17802940       6.10577657       6.55458987
Si       5.24306450       3.33066213       3.72844304
Si       5.70132385       0.96589697       9.39617012
Si       5.68061953       2.99680890      14.63276847
Si       5.35193949       1.37470935       5.31969912
22
Lattice="5.4844172484396045 -0.1710669747473662 0.04329861803409227 2.6573287076441408 6.298343690227067 0.19220123930061458 1.1001099216278452 0.7387679970378457 16.20706857188592" Properties=species:S:1:pos:R:3 unique_starting_index=40 config_type=initial n_minim_iter=18 stress="0.0007095340987155955 0.00022938466066904883 0.00030224657613713 0.00022938466066904883 0.001451094367340714 0.0002994370288307379 0.00030224657613713 0.0002994370288307379 0.001364455428139217" pbc="T T T"
Si       5.57904115       2.69994948      12.51980810
Si       1.44247235       3.73071409       4.94689812
Si       5.39504156       0.67969560       7.31425873
Si       4.06741372       3.79613428      13.52118076
Si       3.68523164       2.70059024      15.30053400
Si       6.90330518       5.54692007       6.44638449
Si       5.76779311       2.50658156       1.83909717
Si       5.26073323       4.69487688       9.55701586
Si       4.12134102       2.43938417       0.47956277
Si       4.41554322       4.68175379      15.42095797
Si       5.25841925       2.75484817      10.42827461
Si       4.72677960       4.41644465      11.60783425
Si       2.12975313       3.10877521       0.81051428
Si       1.00912322      -0.57761489       8.38582304
Si       1.68953745       2.77202245      16.02169138
Si       7.02991385       5.52690769       8.66132075
Si       3.33824141       2.69526866       4.41863313
Si       4.16969158       6.10544437       6.54710107
Si       5.24054461       3.32119432       3.72763651
Si       5.69804728       0.96678024       9.39271609
Si       5.67243818       3.00103340      14.62482167
Si       5.34578105       1.37250666       5.31245681
22
Lattice="5.485257265426127 -0.1729168112193113 0.04134254245764641 2.655453184932782 6.295086960517692 0.192286926468074 1.0943737244533385 0.7409022078647023 16.20088527968199" Properties=species:S:1:pos:R:3 unique_starting_index=40 config_type=initial n_minim_iter=19 stress="0.0006267070542659823 -0.0003065176852732869 -0.0003010323574827566 -0.0003065176852732869 0.0011912741657536588 0.00031943747818893094 -0.0003010323574827566 0.00031943747818893094 0.0013918441693379687" pbc="T T T"
Si       5.57472647       2.69792928      12.51474115
Si       1.43989277       3.72895997       4.94676611
Si       5.39395691       0.68306643       7.31044075
Si       4.06327933       3.79644624      13.51433842
Si       3.67878263       2.70101394      15.29304828
Si       6.90949323       5.53772961       6.44415550
Si       5.76944238       2.50230054       1.83657766
Si       5.25640434       4.69304784       9.55073548
Si       4.11983827       2.43820966       0.47978960
Si       4.40792991       4.68217673      15.41425624
Si       5.25362377       2.75482550      10.42294882
Si       4.72436483       4.41521411      11.59954260
Si       2.12820517       3.10804953       0.80895845
Si       1.00475749      -0.57621630       8.38189533
Si       1.68260419       2.77296810      16.01606050
Si       7.02526890       5.52900679       8.65799676
Si       3.33420813       2.69069630       4.41644296
Si       4.16159919       6.10470247       6.54183410
Si       5.24053185       3.31237628       3.72805398
Si       5.69635506       0.96558511       9.38949438
Si       5.66426536       3.00366763      14.61821749
Si       5.34169135       1.37063446       5.30745289
22
Lattice="5.48585430709866 -0.1734979017908943 0.03796617715911249 2.6549583392101828 6.294851754370245 0.19358474992916597 1.0847457867864718 0.7484628454824037 16.19096864423404" Properties=species:S:1:pos:R:3 unique_starting_index=40 config_type=initial n_minim_iter=20 stress="0.00013049536300275218 -0.0006214402267160438 -0.000882273057456797 -0.0006214402267160438 0.00038647412680583416 0.0010536916450347602 -0.000882273057456797 0.0010536916450347602 3.196408075264254e-05" pbc="T T T"
Si       5.56665598       2.70262230      12.50332800
Si       1.43847306       3.72987600       4.94739398
Si       5.38986047       0.69071120       7.30442384
Si       4.05792310       3.80386804      13.50231684
Si       3.66777255       2.70719157      15.28161973
Si       6.92022571       5.53308660       6.44162255
Si       5.77043470       2.50097680       1.83439793
Si       5.25068812       4.69840798       9.54194347
Si       4.11861389       2.43964419       0.47981224
Si       4.39697429       4.69093758      15.40533303
Si       5.24645804       2.76047079      10.41564230
Si       4.72074094       4.41994534      11.58798801
Si       2.12700116       3.10906626       0.80664973
Si       0.99839234      -0.57276256       8.37450883
Si       1.67230703       2.78079480      16.00779179
Si       7.01801808       5.53899009       8.65307116
Si       3.33005951       2.68877033       4.41313334
Si       4.15148445       6.10923343       6.53573916
Si       5.23851822       3.30274096       3.72883860
Si       5.69330050       0.96763335       9.38330616
Si       5.65339186       3.01443960      14.60868951
Si       5.33561042       1.37342003       5.29952614
22
Lattice="5.48563373268311 -0.17266055889848997 0.0353487445665046 2.655712357587353 6.294441865781949 0.19478892155134542 1.0773209252275038 0.7549577553469715 16.184389802085946" Properties=species:S:1:pos:R:3 unique_starting_index=40 config_type=initial n_minim_iter=21 stress="-1.834488278881447e-05 -0.000965863652049802 -0.001161489790611986 -0.000965863652049802 -0.0004393133491671062 0.0007492298080764076 -0.001161489790611986 0.0007492298080764076 0.00016034210141736182" pbc="T T T"
Si       5.56076843       2.70651094      12.49508641
Si       1.43998436       3.72945531       4.94961242
Si       5.38574381       0.70239787       7.30043640
Si       4.05384858       3.81204805      13.49589500
Si       3.66001257       2.71570424      15.27231801
Si       6.93759762       5.52678624       6.44160614
Si       5.76968011       2.50071903       1.83489949
Si       5.24672295       4.70392485       9.53487060
Si       4.11851890       2.44156355       0.47958368
Si       4.38767947       4.69717142      15.39814510
Si       5.24058336       2.76581647      10.40904066
Si       4.71928875       4.42602008      11.57822568
Si       2.12635716       3.11087889       0.80434319
Si       0.99052482      -0.56927510       8.36703765
Si       1.66272509       2.78780002      16.00306857
Si       7.01222150       5.55050487       8.65107104
Si       3.32552907       2.68588068       4.41142864
Si       4.14141994       6.11343054       6.53071273
Si       5.23752277       3.28848230       3.73281737
Si       5.69237094       0.96931520       9.38064595
Si       5.64544400       3.02603632      14.60188514
Si       5.32873441       1.37796008       5.29300726
