12
Lattice="3.9676499197571458 0.6833062392312306 -6.218439589065998e-14 0.6978339026074827 5.587819680173443 -2.56411772833723e-13 8.491243298253544e-14 4.789969578354257e-13 10.669342660295241" Properties=species:S:1:pos:R:3 unique_starting_index=57 config_type=initial n_minim_iter=1 energy=-1953.9426550728797 free_energy=-1953.9426550728797 pbc="T T T"
Si       2.03637365       2.69247360       0.24696520
Si       2.62911018       3.57865232       5.58163653
Si       3.59746918       6.00491852       7.37000850
Si       1.06801465       0.26620740       2.03533717
Si       2.97818689       3.72467414       7.89642858
Si       1.68729693       2.54645178       2.56175725
Si       2.79781690       5.89743635       5.18277677
Si       1.86766692       0.37368957      10.51744810
Si       3.84369601       4.01454252      10.10841367
Si       0.82178782       2.25658340       4.77374234
Si       3.10734262       0.79696801       3.15580442
Si       1.55814121       5.47415791       8.49047575
12
Lattice="3.9677316825294144 0.6845279954993935 -6.223989698672374e-14 0.7004085223395112 5.582944590458367 -2.5621339733102973e-13 8.490883160316613e-14 4.78976596627702e-13 10.668889138925023" Properties=species:S:1:pos:R:3 unique_starting_index=57 config_type=initial n_minim_iter=2 stress="-0.000593553575354497 0.0002473290052815696 -8.282807918704542e-17 0.0002473290052815696 -0.0011820505392483895 -1.788606347662285e-17 -8.282807918704542e-17 -1.788606347662285e-17 -0.00025467691584716976" pbc="T T T"
Si       2.03747709       2.69066944       0.24656445
Si       2.63066312       3.57680315       5.58100902
Si       3.59963542       6.00086638       7.37009924
Si       1.06850479       0.26660620       2.03565467
Si       2.97972849       3.72259654       7.89629797
Si       1.68841172       2.54487604       2.56185340
Si       2.80059010       5.89318047       5.18217527
Si       1.86755011       0.37429212      10.51661984
Si       3.84573690       4.01237021      10.10804681
Si       0.82240331       2.25510238       4.77360224
Si       3.10728843       0.79801007       3.15576985
Si       1.56085178       5.46946252       8.49021442
12
Lattice="3.9752595140118605 0.6883603215452917 -6.247185886505886e-14 0.706492936093532 5.586642345628244 -2.564278302182469e-13 8.496719481338147e-14 4.793065697625293e-13 10.676238880638312" Properties=species:S:1:pos:R:3 unique_starting_index=57 config_type=initial n_minim_iter=3 stress="0.0021803523894270292 0.0009332812769894852 -1.6755583401014756e-18 0.0009332812769894852 3.360944921409457e-05 1.0915065758375326e-16 -1.6755583401014756e-18 1.0915065758375326e-16 0.002115703071932801" pbc="T T T"
Si       2.04333652       2.69263358       0.24455489
Si       2.63841593       3.58236909       5.58267433
Si       3.60874572       6.00667151       7.37740652
Si       1.07300673       0.26833116       2.03928708
Si       2.98824466       3.72674237       7.90285549
Si       1.69350779       2.54826030       2.56473605
Si       2.81178450       5.89849504       5.18364118
Si       1.86996796       0.37650763      10.52176062
Si       3.85825910       4.01641441      10.11531985
Si       0.82349335       2.25858826       4.77720041
Si       3.11239847       0.80280768       3.15856982
Si       1.56935399       5.47219498       8.49668926
12
Lattice="3.9721820193815907 0.68747299648816 -6.240753012635482e-14 0.7038693656516524 5.591477098127872 -2.5662400480749795e-13 8.482080677934296e-14 4.784789265281768e-13 10.657804158641165" Properties=species:S:1:pos:R:3 unique_starting_index=57 config_type=initial n_minim_iter=4 stress="0.0007192118453980666 0.00019590574388835328 3.0829339812113656e-16 0.00019590574388835328 0.000245630082141826 9.685111418424508e-17 3.0829339812113656e-16 9.685111418424508e-17 -0.00035890105375546396" pbc="T T T"
Si       2.04100187       2.69302926       0.24188768
Si       2.63504952       3.58592084       5.57078976
Si       3.60143011       6.01013041       7.36698789
Si       1.07462128       0.26881968       2.03808581
Si       2.98493423       3.72825586       7.89030910
Si       1.69111716       2.55069424       2.56140702
Si       2.80879371       5.90253667       5.17264038
Si       1.86725768       0.37641342      10.50154246
Si       3.85625790       4.01697500      10.09813818
Si       0.81979349       2.26197509       4.76923610
Si       3.10912474       0.80410970       3.15370699
Si       1.56692665       5.47484039       8.48260907
12
Lattice="3.967893988438402 0.6860055251607226 -6.230752183683289e-14 0.7011235664496802 5.591041087843395 -2.565825775704122e-13 8.489221950658876e-14 4.788826751505313e-13 10.666797144417654" Properties=species:S:1:pos:R:3 unique_starting_index=57 config_type=initial n_minim_iter=5 stress="-0.00045734414118709955 -0.00020811378079152652 1.3565546974706496e-16 -0.00020811378079152652 3.194069295057313e-05 -7.436173673054974e-17 1.3565546974706496e-16 -7.436173673054974e-17 0.0005215674337067274" pbc="T T T"
Si       2.03836508       2.69187358       0.24155439
Si       2.63065248       3.58517303       5.57495296
Si       3.59519447       6.00859456       7.37363670
Si       1.07382309       0.26845206       2.04023813
Si       2.98070773       3.72658928       7.89707376
Si       1.68830983       2.55045733       2.56367519
Si       2.80391164       5.90154233       5.17691579
Si       1.86510592       0.37550428      10.51031436
Si       3.85105214       4.01513648      10.10680679
Si       0.81796542       2.26191013       4.77340821
Si       3.10620390       0.80361137       3.15630737
Si       1.56281366       5.47343524       8.48970595
12
Lattice="3.9665919173473942 0.6870507860425966 -6.234408599560996e-14 0.7028713319045516 5.5881105987361375 -2.564649234646386e-13 8.479173563551621e-14 4.783145664617755e-13 10.654143226267239" Properties=species:S:1:pos:R:3 unique_starting_index=57 config_type=initial n_minim_iter=6 stress="-0.001401228555349499 -0.0004016169469311194 -1.2717632880571882e-16 -0.0004016169469311194 -0.0006974560072058947 -6.876953349095259e-17 -1.2717632880571882e-16 -6.876953349095259e-17 -0.0015068307354315466" pbc="T T T"
Si       2.04315055       2.68826384       0.23800612
Si       2.62631271       3.58689754       5.56507773
Si       3.59384071       6.00726361       7.36672864
Si       1.07562255       0.26789777       2.03965702
Si       2.98226532       3.72046954       7.88782645
Si       1.68719793       2.55469185       2.56075483
Si       2.80527534       5.90242224       5.17197104
Si       1.86418791       0.37273914      10.49904265
Si       3.85075927       4.01286612      10.09569659
Si       0.81870398       2.26229526       4.76862498
Si       3.11222916       0.81021955       3.15178869
Si       1.55723409       5.46494183       8.47886030
12
Lattice="3.9713319579028608 0.6959442822166793 -6.278108060614643e-14 0.7151251906136517 5.59452645179118 -2.5685048300259815e-13 8.482597587959554e-14 4.785081556789199e-13 10.658455132066859" Properties=species:S:1:pos:R:3 unique_starting_index=57 config_type=initial n_minim_iter=7 stress="0.0002218969590605898 0.0003966251127794247 3.6507556446889454e-17 0.0003966251127794247 0.0004453634102155149 -1.3748781725934478e-16 3.6507556446889454e-17 -1.3748781725934478e-16 0.0005236763877936295" pbc="T T T"
Si       2.05734406       2.68705249       0.22849835
Si       2.62911310       3.60341824       5.55772592
Si       3.59795503       6.01890575       7.37721535
Si       1.08850212       0.27156498       2.04798778
Si       2.99491482       3.72067690       7.89250787
Si       1.69154233       2.56979383       2.56328031
Si       2.82355264       5.91896982       5.17124260
Si       1.86290451       0.37150092      10.50047017
Si       3.86774648       4.01874830      10.10175976
Si       0.81871067       2.27172243       4.77253219
Si       3.12361088       0.83172629       3.15451834
Si       1.56284627       5.45874445       8.48374590
12
Lattice="3.9735801263047983 0.6930281993248385 -6.266805584329261e-14 0.7121790455713788 5.590082726668391 -2.5662753545196106e-13 8.482663475707259e-14 4.785118801678968e-13 10.658538056976646" Properties=species:S:1:pos:R:3 unique_starting_index=57 config_type=initial n_minim_iter=8 stress="0.0008987413694978446 -0.0003508577598840221 1.4741432121966766e-16 -0.0003508577598840221 -0.00022172685967712077 -1.6176084002685826e-16 1.4741432121966766e-16 -1.6176084002685826e-16 0.00047087175553777073" pbc="T T T"
Si       2.05844318       2.68220658       0.22776677
Si       2.62731599       3.60090435       5.55703580
Si       3.59382898       6.01191442       7.37761167
Si       1.09193020       0.27119651       2.04834264
Si       2.99521245       3.71427888       7.89155935
Si       1.69054673       2.56883204       2.56229032
Si       2.82225946       5.91496224       5.17179337
Si       1.86349972       0.36814868      10.50106240
Si       3.86838557       4.01279337      10.10192307
Si       0.81737361       2.27031755       4.77265405
Si       3.12656726       0.83235607       3.15535198
Si       1.55919192       5.45075486       8.48462101
12
Lattice="3.971359029733806 0.6961432469321452 -6.279022808222459e-14 0.7158228074395057 5.592130412277862 -2.56748463786804e-13 8.481918134742536e-14 4.784697408411996e-13 10.657599417403343" Properties=species:S:1:pos:R:3 unique_starting_index=57 config_type=initial n_minim_iter=9 stress="0.0003233701789577839 -0.00015061161876349415 -7.94723503062936e-17 -0.00015061161876349415 -0.0001838668207646817 -8.615252616694525e-17 -7.94723503062936e-17 -8.615252616694525e-17 -0.00032396018711204155" pbc="T T T"
Si       2.06285268       2.67925696       0.22651479
Si       2.62432916       3.60901670       5.55531450
Si       3.58665456       6.01489987       7.37717853
Si       1.10052729       0.27337379       2.04837882
Si       2.99731533       3.71109206       7.88653352
Si       1.68986651       2.57718160       2.55773381
Si       2.82567915       5.92609975       5.17376991
Si       1.86150269       0.36217391      10.50256961
Si       3.86995664       4.01482449      10.10087726
Si       0.81722520       2.27344917       4.77207755
Si       3.12928903       0.84561565       3.15814453
Si       1.55789281       5.44265801       8.48694424
12
Lattice="3.9683096579261026 0.6993864799887888 -6.291156336848028e-14 0.7192873940157869 5.595420854676585 -2.569237592801323e-13 8.486740725996553e-14 4.787423999932386e-13 10.663672512820636" Properties=species:S:1:pos:R:3 unique_starting_index=57 config_type=initial n_minim_iter=10 stress="-0.0004325917903634356 3.3863547600435006e-05 -3.4698129807600556e-16 3.3863547600435006e-05 0.00017378052807762582 -2.402812506163213e-16 -3.4698129807600556e-16 -2.402812506163213e-16 1.7449341847992454e-05" pbc="T T T"
Si       2.06574615       2.67519394       0.22475805
Si       2.62185090       3.61961339       5.55659430
Si       3.57785205       6.01921368       7.38398785
Si       1.10974501       0.27559365       2.05215160
Si       2.99831038       3.70822505       7.88610334
Si       1.68928668       2.58658228       2.55426708
Si       2.82875332       5.93858109       5.17771700
Si       1.85884374       0.35622625      10.50955325
Si       3.87288718       4.01542903      10.10550519
Si       0.81470988       2.27937831       4.77366893
Si       3.13153282       0.86166107       3.16427770
Si       1.55606424       5.43314626       8.49611396
12
Lattice="3.970982844505282 0.6976111058418009 -6.285313313111405e-14 0.7180348149039382 5.590905697656923 -2.5671108322526403e-13 8.489159800778396e-14 4.788791710532112e-13 10.66671888431267" Properties=species:S:1:pos:R:3 unique_starting_index=57 config_type=initial n_minim_iter=11 stress="9.11925695967717e-05 0.0001784819270699609 -3.3274612380489376e-16 0.0001784819270699609 -0.00042546977547996517 -8.066845217648371e-17 -3.3274612380489376e-16 -8.066845217648371e-17 0.00041275596931413205" pbc="T T T"
Si       2.06337007       2.66751045       0.22648189
Si       2.62564759       3.62100636       5.55984134
Si       3.57801363       6.01538726       7.39089545
Si       1.11100404       0.27312954       2.05753601
Si       2.99723486       3.70246392       7.88291215
Si       1.69178281       2.58605288       2.54955271
Si       2.82739120       5.93700643       5.17875667
Si       1.86162647       0.35151038      10.51211611
Si       3.87732105       4.00380311      10.10299745
Si       0.81169661       2.28471370       4.76963801
Si       3.13682878       0.86998951       3.17000208
Si       1.55218888       5.41852729       8.50336152
12
Lattice="3.971445425882142 0.6968388704544626 -6.282214528491675e-14 0.7170608558766605 5.590718404370537 -2.566949231480384e-13 8.488486607548584e-14 4.788411108644537e-13 10.665871128771915" Properties=species:S:1:pos:R:3 unique_starting_index=57 config_type=initial n_minim_iter=12 stress="9.113175209430546e-05 0.0001270934904991909 -2.3482620682136333e-16 0.0001270934904991909 -0.00011217683312953614 3.405189825747622e-17 -2.3482620682136333e-16 3.405189825747622e-17 -2.3591428033077056e-05" pbc="T T T"
Si       2.06319916       2.66273634       0.22620206
Si       2.62530713       3.62482094       5.55913763
Si       3.57445606       6.01612973       7.39363977
Si       1.11405022       0.27142755       2.06070421
Si       2.99602689       3.69867839       7.87826774
Si       1.69247939       2.58887889       2.54533217
Si       2.82549178       5.94182779       5.17924906
Si       1.86301450       0.34572948      10.51218463
Si       3.87810436       3.99739924      10.09870325
Si       0.81040193       2.29015803       4.76576769
Si       3.14096688       0.87917682       3.17328541
Si       1.54753940       5.40838045       8.50622098
12
Lattice="3.9723812984726727 0.6922227526716774 -6.262235416087685e-14 0.7108724403520588 5.589858637874846 -2.5660707307743256e-13 8.489819313248247e-14 4.789164589267163e-13 10.667549397759014" Properties=species:S:1:pos:R:3 unique_starting_index=57 config_type=initial n_minim_iter=13 stress="-4.7090522553530935e-05 -0.00018404638886380977 -2.656037010850584e-16 -0.00018404638886380977 0.0005636163954718956 1.2833817453737764e-16 -2.656037010850584e-16 1.2833817453737764e-16 -0.0003172988836225735" pbc="T T T"
Si       2.05963793       2.65445172       0.22544295
Si       2.62361581       3.62762967       5.55921765
Si       3.56532273       6.01672507       7.40039552
Si       1.11793102       0.26535632       2.06662082
Si       2.98994558       3.69271663       7.87344047
Si       1.69330816       2.58936476       2.53966577
Si       2.81535998       5.94935322       5.18304029
Si       1.86789376       0.33272817      10.51681499
Si       3.87339567       3.98133383      10.09251988
Si       0.80985807       2.30074756       4.75874518
Si       3.14560087       0.89115700       3.17985010
Si       1.53765287       5.39092439       8.51362480
12
Lattice="3.9754435582533696 0.6908454727454334 -6.258489260807942e-14 0.7097481233108944 5.588251530106429 -2.5652597429845337e-13 8.489149227181523e-14 4.788785730472572e-13 10.666705528659838" Properties=species:S:1:pos:R:3 unique_starting_index=57 config_type=initial n_minim_iter=14 stress="-2.7034992827039232e-05 -6.446761592956956e-05 -1.365387610682583e-16 -6.446761592956956e-05 -0.00032775113762745857 -2.2427090359676636e-16 -1.365387610682583e-16 -2.2427090359676636e-16 -5.093110252206585e-05" pbc="T T T"
Si       2.05943505       2.65097153       0.21956048
Si       2.62575663       3.62812547       5.55291325
Si       3.56071794       6.01774690       7.40229422
Si       1.12447375       0.26135010       2.06894145
Si       2.98983774       3.69210132       7.87409109
Si       1.69535395       2.58699568       2.54073833
Si       2.81301271       5.95299310       5.18497966
Si       1.87217898       0.32610390      10.51833242
Si       3.87236230       3.97265687      10.09016774
Si       0.81282939       2.30644014       4.75681498
Si       3.14556359       0.89361037       3.18090999
Si       1.53962810       5.38548663       8.51426276
12
Lattice="3.9759886363258783 0.6908441947715789 -6.258917318769726e-14 0.7096594771729298 5.589312474192268 -2.565728994531209e-13 8.491474852605513e-14 4.79010057491321e-13 10.66963417381761" Properties=species:S:1:pos:R:3 unique_starting_index=57 config_type=initial n_minim_iter=15 stress="0.00021078385277116657 0.0003210138260223493 -2.3855732114246757e-16 0.0003210138260223493 0.0004897233539163531 8.426711193391729e-17 -2.3855732114246757e-16 8.426711193391729e-17 0.0006242616011213388" pbc="T T T"
Si       2.05307051       2.64265910       0.21470515
Si       2.63257761       3.63749757       5.54952224
Si       3.55524200       6.02691487       7.40857125
Si       1.13040611       0.25324180       2.07375417
Si       2.98786268       3.69168190       7.87070228
Si       1.69778544       2.58847477       2.53588519
Si       2.80778205       5.96329346       5.19205357
Si       1.87786607       0.31686320      10.52687065
Si       3.87118703       3.96179010      10.08964439
Si       0.81446109       2.31836657       4.75482730
Si       3.14888522       0.89895511       3.18564840
Si       1.53676290       5.38120156       8.52046548
12
Lattice="3.976384616842533 0.6891552861260186 -6.251650149581719e-14 0.7077630723859516 5.5869171820911605 -2.5645027082377364e-13 8.489161121006909e-14 4.788792440124509e-13 10.666720465885872" Properties=species:S:1:pos:R:3 unique_starting_index=57 config_type=initial n_minim_iter=16 stress="0.0001633242174389526 0.00010880852244042133 -3.771141034698322e-16 0.00010880852244042133 0.00027010426655628135 2.8286551679763214e-16 -3.771141034698322e-16 2.8286551679763214e-16 0.0001694161037595496" pbc="T T T"
Si       2.04914586       2.63309825       0.21052470
Si       2.63500184       3.64297422       5.54388493
Si       3.54756656       6.02919193       7.41076500
Si       1.13658114       0.24688054       2.07740477
Si       2.98584799       3.68724870       7.86406435
Si       1.69829970       2.58882377       2.53070412
Si       2.80308860       5.96798953       5.19390940
Si       1.88105909       0.30808294      10.52726963
Si       3.86946869       3.95032326      10.08476169
Si       0.81467900       2.32574921       4.75140145
Si       3.15228578       0.90294567       3.18802560
Si       1.53186191       5.37312680       8.52138583
12
Lattice="3.975806324537077 0.6859992487698957 -6.237020950044693e-14 0.7040440816962489 5.582112211309192 -2.5620495507625433e-13 8.48715445499524e-14 4.787657887414162e-13 10.664193383863644" Properties=species:S:1:pos:R:3 unique_starting_index=57 config_type=initial n_minim_iter=17 stress="-7.991479051907791e-05 -0.0003233979489582975 2.3652716157995556e-16 -0.0003233979489582975 -0.00036470671845954144 3.837422423808605e-16 2.3652716157995556e-16 3.837422423808605e-16 -0.0003215876549761336" pbc="T T T"
Si       2.04281494       2.61676366       0.20519327
Si       2.63703547       3.65134780       5.53728996
Si       3.53399367       6.03302321       7.41650749
Si       1.14585674       0.23508825       2.08441079
Si       2.98128985       3.68092482       7.85478189
Si       1.69856056       2.58718664       2.52268520
Si       2.79556366       5.97469250       5.19642113
Si       1.88428675       0.29341896      10.52851782
Si       3.86357164       3.93220201      10.07898648
Si       0.81627877       2.33590945       4.74688979
Si       3.15623389       0.90638325       3.19211680
Si       1.52361652       5.36172821       8.52421349
12
Lattice="3.9736415611584985 0.6898094358904655 -6.252403808933382e-14 0.7082951608009721 5.586375599325783 -2.5643019068488437e-13 8.487823304609426e-14 4.788036009168289e-13 10.665035589924868" Properties=species:S:1:pos:R:3 unique_starting_index=57 config_type=initial n_minim_iter=18 stress="-0.0002728428402458211 0.00017324682803964008 8.067702225292432e-17 0.00017324682803964008 -0.00027532318707461996 2.604920792802445e-16 8.067702225292432e-17 2.604920792802445e-16 -0.00047109099086875127" pbc="T T T"
Si       2.04739667       2.62505543       0.21085480
Si       2.63454006       3.65112960       5.54337259
Si       3.54144528       6.03863295       7.41478688
Si       1.14049145       0.23755209       2.08226909
Si       2.98319435       3.69109908       7.85898471
Si       1.69874238       2.58508595       2.52646692
Si       2.80547446       5.97395618       5.19153851
Si       1.87646226       0.30222885      10.52405631
Si       3.86298242       3.94742326      10.08231696
Si       0.81895431       2.32876178       4.74979916
Si       3.15144658       0.89891790       3.18820592
Si       1.53049015       5.37726714       8.52072372
12
Lattice="3.973475219126952 0.6885259678958427 -6.246509357859498e-14 0.7064540412609214 5.586400552950045 -2.5641665866127356e-13 8.49516351475001e-14 4.792186010304053e-13 10.674279205203922" Properties=species:S:1:pos:R:3 unique_starting_index=57 config_type=initial n_minim_iter=19 stress="0.00041100242088920505 -0.00011365416158441404 7.042209399181023e-17 -0.00011365416158441404 0.0004897787954980361 1.6527634304200359e-16 7.042209399181023e-17 1.6527634304200359e-16 0.000660877110708281" pbc="T T T"
Si       2.04399650       2.60575137       0.20502538
Si       2.63593277       3.66917515       5.54216499
Si       3.52368989       6.05426255       7.43288419
Si       1.15623937       0.22066397       2.09574459
Si       2.97839342       3.68991818       7.85571595
Si       1.70153584       2.58500834       2.51857635
Si       2.80402888       5.99316915       5.20087842
Si       1.87590038       0.28175737      10.53801802
Si       3.85806424       3.92748365      10.08399043
Si       0.82186502       2.34744287       4.74685082
Si       3.15899687       0.91185320       3.19761574
Si       1.52093240       5.36307332       8.53475534
12
Lattice="3.968817407362211 0.6918288671625883 -6.257630698499063e-14 0.7103443973814472 5.586064035334324 -2.564325128461972e-13 8.495732959541198e-14 4.792507962104139e-13 10.674996331734866" Properties=species:S:1:pos:R:3 unique_starting_index=57 config_type=initial n_minim_iter=20 stress="-0.00015910877116218745 0.00022361646972351133 2.3963272495212395e-16 0.00022361646972351133 7.396709135011879e-05 7.016273478327954e-17 2.3963272495212395e-16 7.016273478327954e-17 -0.0002839457138848931" pbc="T T T"
Si       2.04345141       2.59780858       0.20434244
Si       2.63571040       3.68008432       5.54184061
Si       3.51474105       6.07007161       7.43665591
Si       1.16442076       0.20782129       2.09915775
Si       2.97609512       3.69868091       7.85276705
Si       1.70306669       2.57921199       2.51526889
Si       2.81578637       6.00133551       5.20578730
Si       1.86337544       0.27655739      10.54328546
Si       3.85533004       3.92334143      10.08232367
Si       0.82383177       2.35455148       4.74482550
Si       3.16113721       0.91307565       3.19651635
Si       1.51802460       5.36481726       8.53401451
12
Lattice="3.9693134558693837 0.6897245909503606 -6.248578403233397e-14 0.7080629591232619 5.582609935096355 -2.562592860064528e-13 8.501226349996034e-14 4.795613768463463e-13 10.68191416105569" Properties=species:S:1:pos:R:3 unique_starting_index=57 config_type=initial n_minim_iter=21 stress="0.0002251823396254866 -0.0001877683362144541 2.6618279490237877e-17 -0.0001877683362144541 5.694730829925671e-05 1.077920417194768e-16 2.6618279490237877e-17 1.077920417194768e-16 0.00027398517775375716" pbc="T T T"
Si       2.04322194       2.59485752       0.20458929
Si       2.63415448       3.67747701       5.54554637
Si       3.50901260       6.06759072       7.44371748
Si       1.16836382       0.20474381       2.10276040
Si       2.97508526       3.69554917       7.85641685
Si       1.70229116       2.57678535       2.51545977
Si       2.81667152       6.00007722       5.20952096
Si       1.86070490       0.27225731      10.55047805
Si       3.85618686       3.91591821      10.08542132
Si       0.82118956       2.35641631       4.74446424
Si       3.16481001       0.91746214       3.20074618
Si       1.51256641       5.35487239       8.54170326
