14
Lattice="5.253093555262389 6.473434440677438e-42 7.7565718810925e-25 2.517080720481126e-41 6.871306537499148 -2.278139882019072e-16 -2.494425228958809e-24 5.600887738935195e-16 16.89335094833393" Properties=species:S:1:pos:R:3 unique_starting_index=9 config_type=initial n_minim_iter=1 energy=-2277.173604328712 free_energy=-2277.173604328712 pbc="T T T"
Si       2.59473880       1.64681468       7.41326728
Si       2.65835476       1.64681468       9.48008367
Si       5.22128557       5.22449186       1.03340820
Si       0.03180798       5.22449186      15.85994275
Si       2.65835476       5.22449186       9.48008367
Si       2.59473880       5.22449186       7.41326728
Si       0.03180798       1.64681468      15.85994275
Si       5.22128557       1.64681468       1.03340820
Si      -0.58852423       3.43565327       2.01748473
Si       5.84161779       3.43565327      14.87586622
Si       2.03802254       3.43565327       6.42919075
Si       3.21507101       3.43565327      10.46416020
Si      -0.00000000       3.43565327      -0.00000000
Si       2.62654678       3.43565327       8.44667547
