16
Lattice="5.458655101026944 0.22465698406082588 0.4678341910453643 2.2929614058113446 5.165331297170047 0.6294380831669842 3.7094350284870976 1.8047785765184572 13.136048984265614" Properties=species:S:1:pos:R:3 unique_starting_index=3 config_type=initial n_minim_iter=1 energy=-2610.2295507206313 free_energy=-2610.2295507206313 pbc="T T T"
Si       6.68138077       6.76583582       7.06025884
Si       6.71246453       3.75971611      13.26330575
Si       1.65198581       2.03519492       3.46135715
Si       5.40638321       2.18179934       2.66034038
Si       6.44325414       1.63130906       5.87107089
Si       7.61431851       2.14397359       7.57391838
Si       3.51412615       3.03586730       3.25452769
Si       7.33489785       3.34892528       2.11989416
Si       3.76791786       1.69336442       8.45926257
Si       5.77604148       1.16827371       8.02419927
Si       8.36119979       3.76535417       9.49901858
Si       2.86159157       2.38647863       5.17672782
Si       5.22916522       7.12198596      11.07164571
Si       4.98330157       2.35275773      10.06238945
Si       6.63305416       3.35476997      11.05208183
Si       4.82619862       0.64878130       1.03471317
16
Lattice="5.458376749231722 0.2247074435611596 0.467745405269069 2.292864098958162 5.165745826175853 0.6294477931846622 3.709073263973905 1.805091792907796 13.135614273573621" Properties=species:S:1:pos:R:3 unique_starting_index=3 config_type=initial n_minim_iter=2 stress="-0.0009198809553006633 -0.0001393136764237779 -0.0002889276962710344 -0.0001393136764237779 -0.00015053873006858564 -1.3585127864494811e-05 -0.0002889276962710344 -1.3585127864494811e-05 -0.0006124052103929372" pbc="T T T"
Si       6.68106564       6.76646716       7.06005913
Si       6.71194005       3.76019996      13.26281242
Si       1.65181389       2.03539951       3.46128400
Si       5.40610379       2.18206268       2.66022693
Si       6.44279688       1.63154896       5.87084372
Si       7.61382082       2.14418407       7.57361047
Si       3.51400855       3.03616338       3.25438619
Si       7.33447141       3.34926209       2.11977249
Si       3.76763752       1.69365910       8.45897641
Si       5.77575103       1.16850207       8.02385092
Si       8.36063531       3.76574797       9.49870386
Si       2.86133129       2.38676741       5.17653479
Si       5.22874227       7.12270178      11.07129169
Si       4.98289855       2.35304846      10.06203162
Si       6.63261606       3.35516833      11.05167935
Si       4.82595138       0.64888205       1.03460121
16
Lattice="5.458562026780338 0.22482549134421043 0.46782296197032697 2.2930331328863582 5.166239031835653 0.6295544705268279 3.7093764734201398 1.805475918047978 13.13599411237734" Properties=species:S:1:pos:R:3 unique_starting_index=3 config_type=initial n_minim_iter=3 stress="6.877653703043117e-05 -0.0001341790875527646 2.6152333056683422e-05 -0.0001341790875527646 0.0002737365729968871 -2.9362503233207344e-05 2.6152333056683422e-05 -2.9362503233207344e-05 0.0001089230265001082" pbc="T T T"
Si       6.68156218       6.76725012       7.06042252
Si       6.71235154       3.76081058      13.26321502
Si       1.65189216       2.03564826       3.46144755
Si       5.40636104       2.18241739       2.66039770
Si       6.44303885       1.63188594       5.87110209
Si       7.61416905       2.14450713       7.57390961
Si       3.51430623       3.03653291       3.25451226
Si       7.33473743       3.34972268       2.11995915
Si       3.76790377       1.69402708       8.45925152
Si       5.77616130       1.16881379       8.02409024
Si       8.36104736       3.76627628       9.49912750
Si       2.86146556       2.38712081       5.17670086
Si       5.22911711       7.12355168      11.07168244
Si       4.98320188       2.35342960      10.06236347
Si       6.63304568       3.35568716      11.05205345
Si       4.82613614       0.64904915       1.03466840
16
Lattice="5.4586056761912936 0.22497445544135888 0.46783292607023125 2.2931900509269996 5.166230175882161 0.6295998609693938 3.709474961399431 1.8056618445065677 13.135956212585333" Properties=species:S:1:pos:R:3 unique_starting_index=3 config_type=initial n_minim_iter=4 stress="6.0332636408221184e-05 0.00010567526335785504 9.320895248176572e-05 0.00010567526335785504 -0.00012359412463380966 -2.958106972867781e-06 9.320895248176572e-05 -2.958106972867781e-06 -3.1342098248510536e-05" pbc="T T T"
Si       6.68181541       6.76739852       7.06046867
Si       6.71251038       3.76105346      13.26317587
Si       1.65196379       2.03571064       3.46146410
Si       5.40646654       2.18257624       2.66041859
Si       6.44312366       1.63209577       5.87110728
Si       7.61429594       2.14470396       7.57390499
Si       3.51444717       3.03660364       3.25451687
Si       7.33485173       3.34989651       2.12000637
Si       3.76799986       1.69422229       8.45923575
Si       5.77628043       1.16902335       8.02406458
Si       8.36121624       3.76647811       9.49914963
Si       2.86154132       2.38721754       5.17670388
Si       5.22935304       7.12367542      11.07169112
Si       4.98331605       2.35359972      10.06235710
Si       6.63320627       3.35590355      11.05203790
Si       4.82619172       0.64918899       1.03466626
16
Lattice="5.458713265619988 0.22510961453234093 0.4673495010752075 2.2932667832107563 5.166987564290568 0.629710041294351 3.7083298557980395 1.8066886375726772 13.136624812948572" Properties=species:S:1:pos:R:3 unique_starting_index=3 config_type=initial n_minim_iter=5 stress="0.0005517087479940087 -0.00017523932720481995 -0.0006358234821998621 -0.00017523932720481995 -8.755804742977371e-05 1.266490670399929e-05 -0.0006358234821998621 1.266490670399929e-05 -6.919904150252186e-05" pbc="T T T"
Si       6.68137434       6.76889819       7.06073373
Si       6.71132832       3.76242781      13.26343692
Si       1.65183577       2.03646305       3.46176703
Si       5.40643813       2.18330419       2.66022811
Si       6.44272830       1.63284004       5.87102413
Si       7.61389342       2.14511482       7.57376792
Si       3.51440839       3.03709821       3.25447215
Si       7.33459445       3.35062369       2.11979735
Si       3.76752491       1.69530859       8.45952646
Si       5.77587690       1.16970621       8.02408771
Si       8.36045288       3.76732569       9.49934928
Si       2.86102168       2.38793138       5.17698394
Si       5.22852159       7.12508923      11.07232597
Si       4.98248853       2.35438794      10.06285146
Si       6.63228909       3.35703213      11.05230297
Si       4.82627172       0.64950367       1.03418909
16
Lattice="5.458238893830566 0.2254488307315506 0.4676218274000638 2.2933364952117965 5.168071271940507 0.6301629029065324 3.70858684480504 1.8079619452052997 13.138208662411321" Properties=species:S:1:pos:R:3 unique_starting_index=3 config_type=initial n_minim_iter=6 stress="-0.00029425669584843406 -0.0002052746404200267 4.9026303967951586e-05 -0.0002052746404200267 -0.0001418438274626253 0.00013167156514400923 4.9026303967951586e-05 0.00013167156514400923 0.0004659752971807972" pbc="T T T"
Si       6.68132499       6.77098934       7.06216333
Si       6.71125075       3.76425570      13.26499034
Si       1.65208056       2.03742134       3.46243363
Si       5.40620818       2.18436389       2.66085964
Si       6.44240657       1.63392347       5.87199221
Si       7.61370074       2.14585640       7.57488222
Si       3.51449659       3.03783196       3.25501214
Si       7.33381786       3.35178839       2.12067321
Si       3.76789296       1.69663132       8.46053923
Si       5.77588953       1.17066532       8.02515293
Si       8.36007558       3.76866428       9.50100036
Si       2.86092919       2.38888543       5.17782653
Si       5.22880704       7.12701381      11.07403603
Si       4.98251957       2.35546820      10.06439961
Si       6.63221218       3.35855124      11.05380280
Si       4.82594459       0.65003983       1.03438207
16
Lattice="5.458428980365724 0.22597686933886646 0.46760922240627784 2.293872939937054 5.169177643603405 0.6301171613068359 3.7089159484028205 1.8085870855909336 13.13725879899021" Properties=species:S:1:pos:R:3 unique_starting_index=3 config_type=initial n_minim_iter=7 stress="8.192728059344879e-05 1.884493483528948e-05 3.2359700832713125e-05 1.884493483528948e-05 0.0001758070598108729 7.418104311611472e-05 3.2359700832713125e-05 7.418104311611472e-05 -0.00024958874688239195" pbc="T T T"
Si       6.68211516       6.77285557       7.06171221
Si       6.71172756       3.76552976      13.26383974
Si       1.65240514       2.03811978       3.46229838
Si       5.40664840       2.18539324       2.66070575
Si       6.44276874       1.63487682       5.87158874
Si       7.61429065       2.14658339       7.57428209
Si       3.51497259       3.03854192       3.25473944
Si       7.33410538       3.35309623       2.12064703
Si       3.76845106       1.69744906       8.45985390
Si       5.77627732       1.17133758       8.02457419
Si       8.36056428       3.76990126       9.50044123
Si       2.86116390       2.38961843       5.17749411
Si       5.22959513       7.12852367      11.07321664
Si       4.98292067       2.35617373      10.06381994
Si       6.63275577       3.35963422      11.05294952
Si       4.82619172       0.65067551       1.03422862
16
Lattice="5.458314112166265 0.22631295259110554 0.4674771331926948 2.2941299927475005 5.1696366132472065 0.6298674524163566 3.708582273789838 1.8083625132544592 13.137936807840472" Properties=species:S:1:pos:R:3 unique_starting_index=3 config_type=initial n_minim_iter=8 stress="-0.00024582188618450205 0.00040229278150668885 -0.0002915779258801692 0.00040229278150668885 0.00025256436572925313 -0.00038228634893839615 -0.0002915779258801692 -0.00038228634893839615 0.0004237789375058092" pbc="T T T"
Si       6.68218831       6.77351342       7.06162485
Si       6.71131813       3.76566941      13.26415099
Si       1.65241405       2.03837395       3.46251995
Si       5.40672922       2.18591423       2.66067156
Si       6.44256992       1.63524567       5.87170019
Si       7.61423488       2.14655663       7.57439500
Si       3.51501023       3.03867531       3.25473745
Si       7.33386383       3.35380001       2.12046987
Si       3.76844410       1.69759495       8.46025566
Si       5.77607954       1.17134215       8.02488796
Si       8.36017953       3.77016154       9.50079729
Si       2.86104509       2.38982175       5.17768075
Si       5.22953300       7.12870145      11.07343878
Si       4.98267195       2.35605423      10.06441575
Si       6.63256094       3.35963811      11.05325260
Si       4.82614343       0.65107790       1.03404096
16
Lattice="5.458715070834184 0.2263287228678928 0.46772812385396606 2.2942893492686407 5.170136699320385 0.6302449460493972 3.709426390837408 1.809234596324127 13.137956375078947" Properties=species:S:1:pos:R:3 unique_starting_index=3 config_type=initial n_minim_iter=9 stress="-9.864675862841693e-06 -8.23521847800431e-06 -5.651022103281039e-05 -8.23521847800431e-06 -5.198062024152606e-05 0.000187262669007588 -5.651022103281039e-05 0.000187262669007588 -4.627557271221102e-06" pbc="T T T"
Si       6.68293659       6.77484099       7.06190900
Si       6.71189573       3.76690896      13.26368285
Si       1.65267897       2.03935097       3.46304505
Si       5.40773244       2.18676001       2.66112448
Si       6.44328749       1.63610765       5.87186956
Si       7.61575660       2.14600958       7.57444742
Si       3.51536047       3.03858868       3.25512997
Si       7.33362302       3.35458532       2.12109784
Si       3.76972005       1.69872511       8.46045232
Si       5.77718345       1.17153685       8.02505332
Si       8.36050555       3.77068899       9.50174544
Si       2.86126170       2.39067808       5.17793429
Si       5.23012263       7.12950275      11.07361992
Si       4.98343894       2.35628526      10.06528752
Si       6.63363624       3.35998439      11.05320544
Si       4.82667628       0.65153823       1.03396134
16
Lattice="5.458955236982848 0.22643036149518125 0.46803348545011647 2.2945403884021935 5.170562266382183 0.6298216175586623 3.7104663476162796 1.8081137505604117 13.137230907103683" Properties=species:S:1:pos:R:3 unique_starting_index=3 config_type=initial n_minim_iter=10 stress="-7.484728816787092e-05 -2.251496415379174e-05 6.273818702237138e-06 -2.251496415379174e-05 1.569488694185353e-05 -6.415510978516618e-06 6.273818702237138e-06 -6.415510978516618e-06 -0.00010603534717619332" pbc="T T T"
Si       6.68388025       6.77514518       7.06101355
Si       6.71268000       3.76620609      13.26231251
Si       1.65283179       2.03967217       3.46294063
Si       5.40861174       2.18721492       2.66119828
Si       6.44389478       1.63614378       5.87174871
Si       7.61726496       2.14456070       7.57416831
Si       3.51580883       3.03820796       3.25498328
Si       7.33344565       3.35517907       2.12122996
Si       3.77071570       1.69857815       8.45991251
Si       5.77831229       1.17064753       8.02478448
Si       8.36098227       3.77006092       9.50167433
Si       2.86168945       2.39078523       5.17771573
Si       5.23124893       7.12851177      11.07239943
Si       4.98430325       2.35511361      10.06553509
Si       6.63465320       3.35885845      11.05236204
Si       4.82707680       0.65194409       1.03389020
16
Lattice="5.4592215587412225 0.2267451474626906 0.4682203318610611 2.294985134148728 5.170535006818868 0.62967767337281 3.7112417659599353 1.8077499431526667 13.13693045110849" Properties=species:S:1:pos:R:3 unique_starting_index=3 config_type=initial n_minim_iter=11 stress="-3.6591676883472384e-05 -3.5122702078234505e-05 0.0001276972349564943 -3.5122702078234505e-05 -4.497927918193567e-05 -9.963134332044226e-05 0.0001276972349564943 -9.963134332044226e-05 -0.00019329711297236848" pbc="T T T"
Si       6.68492354       6.77529380       7.06059266
Si       6.71342033       3.76612279      13.26163782
Si       1.65294351       2.03985753       3.46280742
Si       5.40926548       2.18759644       2.66122656
Si       6.44445209       1.63647096       5.87183410
Si       7.61829536       2.14393585       7.57404368
Si       3.51636214       3.03805809       3.25497170
Si       7.33368613       3.35567355       2.12144398
Si       3.77172500       1.69864951       8.45983890
Si       5.77912525       1.17049391       8.02466332
Si       8.36156255       3.77008676       9.50181066
Si       2.86224196       2.39096248       5.17780179
Si       5.23245929       7.12778471      11.07184288
Si       4.98492007       2.35457032      10.06580636
Si       6.63548980       3.35844324      11.05201323
Si       4.82745645       0.65243551       1.03386413
16
Lattice="5.4592965050030875 0.22713701400654845 0.4680431569049397 2.2953515236767763 5.17052301430088 0.6298639549348991 3.710929606033753 1.8085752251364104 13.13730757134492" Properties=species:S:1:pos:R:3 unique_starting_index=3 config_type=initial n_minim_iter=12 stress="-0.00011033886379369651 0.00018664653971915454 -4.561319907425775e-05 0.00018664653971915454 0.00011040880673192871 0.0003354378303679963 -4.561319907425775e-05 0.0003354378303679963 -5.536703491759633e-06" pbc="T T T"
Si       6.68528170       6.77593808       7.06083153
Si       6.71311521       3.76718609      13.26179211
Si       1.65291584       2.04020930       3.46298893
Si       5.40938684       2.18808937       2.66112964
Si       6.44445056       1.63725740       5.87190688
Si       7.61844111       2.14431325       7.57413262
Si       3.51652388       3.03829794       3.25513113
Si       7.33380578       3.35629241       2.12146125
Si       3.77177417       1.69930095       8.45999157
Si       5.77907883       1.17117527       8.02469656
Si       8.36136795       3.77103538       9.50215376
Si       2.86228214       2.39149737       5.17808441
Si       5.23262554       7.12821858      11.07224857
Si       4.98476583       2.35510813      10.06636196
Si       6.63536384       3.35912840      11.05221887
Si       4.82758204       0.65295027       1.03367242
16
Lattice="5.459861706979751 0.22736238606729964 0.4678056452929782 2.295894684145598 5.169103622697815 0.62914694749742 3.7109112017660295 1.8066774867955429 13.137115548670028" Properties=species:S:1:pos:R:3 unique_starting_index=3 config_type=initial n_minim_iter=13 stress="1.4289481754689143e-05 -5.3610678418606296e-05 6.106520232861817e-05 -5.3610678418606296e-05 -0.00016333735548040653 -3.1333025962177266e-05 6.106520232861817e-05 -3.1333025962177266e-05 -6.520884364381856e-05" pbc="T T T"
Si       6.68641799       6.77380161       7.05977488
Si       6.71300257       3.76524019      13.26060847
Si       1.65302635       2.03975876       3.46295038
Si       5.40980930       2.18763903       2.66028763
Si       6.44512602       1.63686632       5.87164635
Si       7.61950585       2.14186470       7.57376235
Si       3.51693262       3.03714478       3.25479299
Si       7.33437826       3.35601019       2.12091378
Si       3.77261222       1.69822575       8.45962844
Si       5.77974613       1.17004303       8.02416471
Si       8.36147833       3.76947011       9.50193870
Si       2.86246110       2.39096977       5.17794742
Si       5.23319756       7.12450650      11.07099231
Si       4.98497586       2.35281366      10.06687248
Si       6.63567761       3.35665270      11.05150641
Si       4.82824732       0.65345602       1.03318876
16
Lattice="5.459993130610513 0.22827615838648588 0.4676841060603448 2.2967510093338186 5.169815399654177 0.6293831318927109 3.7109435627783145 1.8081169855313612 13.1372012152602" Properties=species:S:1:pos:R:3 unique_starting_index=3 config_type=initial n_minim_iter=14 stress="6.718404370255645e-05 -3.103356281877236e-05 7.808631102215199e-05 -3.103356281877236e-05 -7.125654898964763e-05 3.5884500185220707e-05 7.808631102215199e-05 3.5884500185220707e-05 2.3887787815737313e-06" pbc="T T T"
Si       6.68783391       6.77581491       7.06003674
Si       6.71297898       3.76761754      13.26029891
Si       1.65317771       2.04080075       3.46298190
Si       5.41015323       2.18877970       2.66001169
Si       6.44551889       1.63863985       5.87133295
Si       7.62021309       2.14271850       7.57393780
Si       3.51708593       3.03810000       3.25504438
Si       7.33498854       3.35782139       2.12116395
Si       3.77322372       1.69971848       8.45989855
Si       5.78001148       1.17119821       8.02385488
Si       8.36169719       3.77159502       9.50219695
Si       2.86253015       2.39240105       5.17812310
Si       5.23411247       7.12574117      11.07108494
Si       4.98514089       2.35364480      10.06756893
Si       6.63595771       3.35812301      11.05160755
Si       4.82853409       0.65480046       1.03293746
16
Lattice="5.459763246448572 0.22987059613920144 0.46727846313734644 2.2980179653416477 5.171748712129881 0.6296036129905331 3.710275750090763 1.8106167852919106 13.13673114077369" Properties=species:S:1:pos:R:3 unique_starting_index=3 config_type=initial n_minim_iter=15 stress="8.040637200605644e-05 -2.410892084099166e-05 2.5359929477953476e-05 -2.410892084099166e-05 6.253051451948673e-06 7.315432007293358e-05 2.5359929477953476e-05 7.315432007293358e-05 6.0761421421861664e-05" pbc="T T T"
Si       6.68914443       6.78021468       7.06001261
Si       6.71197956       3.77205397      13.25910172
Si       1.65299690       2.04263335       3.46296433
Si       5.41036219       2.19093397       2.65936092
Si       6.44576946       1.64188404       5.87034027
Si       7.62003008       2.14443902       7.57329714
Si       3.51685270       3.04022983       3.25518041
Si       7.33558923       3.36155801       2.12087986
Si       3.77362797       1.70232415       8.45978251
Si       5.77997904       1.17309936       8.02275646
Si       8.36125278       3.77534056       9.50200952
Si       2.86230200       2.39494330       5.17832790
Si       5.23491596       7.12872517      11.07041759
Si       4.98494354       2.35527514      10.06846969
Si       6.63547727       3.36098628      11.05123009
Si       4.82859174       0.65722471       1.03230285
16
Lattice="5.459691036332641 0.23061113812720732 0.4670564984751859 2.298626454509192 5.173153837543936 0.6293527825778737 3.709975176285585 1.8111236687197447 13.136046647701287" Properties=species:S:1:pos:R:3 unique_starting_index=3 config_type=initial n_minim_iter=16 stress="8.976451330640234e-05 -5.3720411724612995e-06 1.0533270672918153e-05 -5.3720411724612995e-06 0.00018784958868779076 4.9138069221171475e-05 1.0533270672918153e-05 4.9138069221171475e-05 5.865973792186658e-05" pbc="T T T"
Si       6.68987487       6.78267094       7.05935613
Si       6.71149379       3.77379159      13.25796034
Si       1.65313666       2.04364454       3.46264023
Si       5.41035777       2.19199639       2.65881106
Si       6.44550650       1.64309161       5.86967083
Si       7.62012003       2.14508237       7.57261041
Si       3.51665208       3.04139704       3.25498583
Si       7.33603472       3.36366609       2.12030776
Si       3.77390996       1.70317009       8.45932349
Si       5.78005864       1.17323136       8.02196664
Si       8.36113202       3.77667356       9.50163638
Si       2.86225944       2.39605939       5.17826934
Si       5.23533137       7.13021223      11.06911784
Si       4.98483974       2.35537632      10.06854818
Si       6.63521774       3.36194972      11.05065055
Si       4.82867644       0.65847103       1.03190512
16
Lattice="5.45957984852354 0.23070108451832386 0.46683768536003056 2.2986817744475827 5.173168008448401 0.6288542473910219 3.7094660753779616 1.8101601043667122 13.135770967322639" Properties=species:S:1:pos:R:3 unique_starting_index=3 config_type=initial n_minim_iter=17 stress="5.464209767017146e-05 -2.4584979511666137e-05 -2.981995123274316e-05 -2.4584979511666137e-05 0.00010491839722040848 -3.851366246398382e-05 -2.981995123274316e-05 -3.851366246398382e-05 5.4304615842055635e-05" pbc="T T T"
Si       6.68969590       6.78258283       7.05855091
Si       6.71071142       3.77325992      13.25727082
Si       1.65302047       2.04389784       3.46208896
Si       5.41008184       2.19196099       2.65839487
Si       6.44510519       1.64288032       5.86913856
Si       7.61979190       2.14429450       7.57211229
Si       3.51645904       3.04147867       3.25473412
Si       7.33604224       3.36395225       2.11978949
Si       3.77390224       1.70264371       8.45895996
Si       5.78006712       1.17204314       8.02154636
Si       8.36067225       3.77602896       9.50126018
Si       2.86182104       2.39590711       5.17816250
Si       5.23471376       7.12907576      11.06815743
Si       4.98459572       2.35397600      10.06874213
Si       6.63473129       3.36091534      11.05033028
Si       4.82866031       0.65893722       1.03153385
16
Lattice="5.459215092995999 0.23086276998126462 0.4665921245006738 2.298696550705307 5.172926514913085 0.6284648316497143 3.7087152056166968 1.8094359730628615 13.13571644000399" Properties=species:S:1:pos:R:3 unique_starting_index=3 config_type=initial n_minim_iter=18 stress="-5.601023158493991e-05 1.054429569992586e-05 -4.978343102044223e-05 1.054429569992586e-05 -4.630216274707266e-05 -8.427734124197338e-05 -4.978343102044223e-05 -8.427734124197338e-05 5.2162369101769615e-05" pbc="T T T"
Si       6.68914300       6.78269551       7.05770634
Si       6.70938697       3.77329323      13.25676778
Si       1.65266691       2.04441651       3.46174127
Si       5.40927387       2.19210420       2.65802904
Si       6.44443804       1.64291002       5.86820728
Si       7.61924139       2.14341891       7.57187518
Si       3.51652121       3.04198330       3.25479977
Si       7.33584212       3.36456087       2.11914135
Si       3.77407607       1.70226013       8.45863242
Si       5.77990835       1.17023237       8.02125882
Si       8.35986928       3.77532464       9.50131796
Si       2.86080093       2.39588181       5.17809428
Si       5.23393045       7.12741631      11.06726186
Si       4.98397868       2.35177719      10.06963434
Si       6.63373247       3.35988677      11.05048832
Si       4.82851730       0.65991190       1.03099121
16
Lattice="5.459045779643727 0.2312949775741948 0.46631063609162215 2.2989791752825086 5.173414090275655 0.628496465946818 3.7081197450979837 1.8102803980311315 13.134679842453997" Properties=species:S:1:pos:R:3 unique_starting_index=3 config_type=initial n_minim_iter=19 stress="-0.00010662704919518603 8.509427647068347e-05 -8.127803020801589e-05 8.509427647068347e-05 -6.821565537820675e-05 -7.531484242885647e-05 -8.127803020801589e-05 -7.531484242885647e-05 2.2039194131140617e-05" pbc="T T T"
Si       6.68925740       6.78423941       7.05665953
Si       6.70861816       3.77502041      13.25555699
Si       1.65263921       2.04537701       3.46141332
Si       5.40887959       2.19301613       2.65763793
Si       6.44402063       1.64379004       5.86742896
Si       7.61868471       2.14381229       7.57099349
Si       3.51661153       3.04303922       3.25502471
Si       7.33581912       3.36587878       2.11859890
Si       3.77408500       1.70298879       8.45781234
Si       5.77960236       1.17003279       8.02033775
Si       8.35957569       3.77625018       9.50060648
Si       2.86034202       2.39684230       5.17743473
Si       5.23356013       7.12784016      11.06634566
Si       4.98368797       2.35134948      10.06963128
Si       6.63314696       3.36070448      11.04983696
Si       4.82850480       0.66098612       1.03045558
16
Lattice="5.459136366021496 0.23109427153530795 0.4662593942530983 2.2987675792918054 5.173921473580778 0.6288807616316954 3.7079248608617292 1.8113364000987804 13.13495183328325" Properties=species:S:1:pos:R:3 unique_starting_index=3 config_type=initial n_minim_iter=20 stress="-5.7309495457215534e-05 8.472157436323295e-05 -1.4618069033364374e-05 8.472157436323295e-05 -8.544993727956919e-05 -2.560021581191487e-05 -1.4618069033364374e-05 -2.560021581191487e-05 5.260186575142655e-05" pbc="T T T"
Si       6.68888543       6.78572238       7.05683802
Si       6.70825015       3.77704204      13.25591419
Si       1.65247530       2.04667652       3.46122615
Si       5.40866868       2.19397807       2.65779553
Si       6.44420377       1.64406944       5.86729664
Si       7.61845119       2.14317637       7.57149748
Si       3.51643309       3.04440385       3.25605197
Si       7.33563667       3.36707101       2.11830991
Si       3.77453770       1.70384559       8.45755587
Si       5.77957200       1.16915556       8.02011276
Si       8.35977868       3.77640541       9.50129210
Si       2.86011257       2.39844766       5.17766844
Si       5.23265931       7.12817343      11.06686521
Si       4.98336944       2.34960560      10.07089992
Si       6.63316547       3.36107562      11.05053175
Si       4.82877850       0.66195704       1.02995318
16
Lattice="5.459228186249388 0.2299820913571611 0.46635538761350664 2.297711450134268 5.17476568313616 0.6290978690861484 3.7080324567683203 1.81165455141969 13.13267652251829" Properties=species:S:1:pos:R:3 unique_starting_index=3 config_type=initial n_minim_iter=21 stress="4.9258282953244556e-05 -1.372706881639996e-05 7.276010551819217e-05 -1.372706881639996e-05 -4.109159837416246e-05 5.286198002200558e-05 7.276010551819217e-05 5.286198002200558e-05 -5.023094611748263e-05" pbc="T T T"
Si       6.68822525       6.78694867       7.05519065
Si       6.70802769       3.77856748      13.25391261
Si       1.65218413       2.04833713       3.46043518
Si       5.40805651       2.19499792       2.65754548
Si       6.44460343       1.64335817       5.86600990
Si       7.61826188       2.14082408       7.57068196
Si       3.51602648       3.04640772       3.25614160
Si       7.33477660       3.36795602       2.11780061
Si       3.77503392       1.70398338       8.45579107
Si       5.77905647       1.16655862       8.01817878
Si       8.36008477       3.77498124       9.50055089
Si       2.85934818       2.40025249       5.17786312
Si       5.23067109       7.12770863      11.06505899
Si       4.98357224       2.34565592      10.07102928
Si       6.63305222       3.35995908      11.04895216
Si       4.82914128       0.66276150       1.02912602
