8
Lattice="2.7980899999999993 -1.3485812485137213e-47 -1.0786151380396024e-79 6.897824407155811e-32 6.191839999999999 -1.8556329809942927e-47 8.331019508568165e-95 -7.632032042786987e-32 9.54225" Properties=species:S:1:pos:R:3 unique_starting_index=54 config_type=initial n_minim_iter=1 pbc="T T T"
Si       0.68319481       0.57843612       1.24409565
Si       2.11489519       5.61340388       1.24409565
Si       0.71585019       3.67435612       6.01522065
Si       2.08223981       2.51748388       6.01522065
Si       0.75146848       5.44502732       0.35019962
Si       2.04662152       0.74681268       0.35019962
Si       0.64757652       2.34910732       5.12132462
Si       2.15051348       3.84273268       5.12132462
8
Lattice="2.8707446685702522 1.6916252799253555e-33 1.3529868050804388e-65 7.451268525637711e-32 6.293293089085663 -8.980693139503138e-34 -4.578367139448132e-81 -7.895484169755017e-32 9.680941608323419" Properties=species:S:1:pos:R:3 unique_starting_index=54 config_type=initial n_minim_iter=2 pbc="T T T"
Si       0.70104284       0.58963562       1.26376557
Si       2.16970183       5.70365747       1.26376557
Si       0.73432950       3.73628217       6.10423638
Si       2.13641517       2.55701092       6.10423638
Si       0.77083569       5.53299840       0.35370194
Si       2.09990898       0.76029469       0.35370194
Si       0.66453665       2.38635186       5.19417275
Si       2.20620802       3.90694123       5.19417275
8
Lattice="3.181709167698402 6.333128519551478e-33 5.069243361479515e-65 9.243615337934957e-32 6.6277271495864305 -4.6983458015403445e-33 2.475611504852429e-80 -8.893374834257555e-32 10.209537824465318" Properties=species:S:1:pos:R:3 unique_starting_index=54 config_type=initial n_minim_iter=3 pbc="T T T"
Si       0.77734868       0.62812892       1.34026483
Si       2.40436049       5.99959823       1.34026483
Si       0.81350590       3.94199249       6.44503374
Si       2.36820327       2.68573466       6.44503374
Si       0.84915617       5.82588560       0.36551923
Si       2.33255300       0.80184155       0.36551923
Si       0.74169841       2.51202202       5.47028814
Si       2.44001075       4.11570513       5.47028814
8
Lattice="3.7410313707962004 5.770505037472429e-33 4.693047687517746e-65 1.045457370509209e-31 6.92858480233785 -8.230629978579287e-33 2.574757569981401e-80 -9.810774560854117e-32 10.806417353034073" Properties=species:S:1:pos:R:3 unique_starting_index=54 config_type=initial n_minim_iter=4 pbc="T T T"
Si       0.91329641       0.66694025       1.43344172
Si       2.82773496       6.26164456       1.43344172
Si       0.95721927       4.13123265       6.83665040
Si       2.78381210       2.79735215       6.83665040
Si       0.99692759       6.09047017       0.37206747
Si       2.74410378       0.83811463       0.37206747
Si       0.87358810       2.62617777       5.77527614
Si       2.86744327       4.30240703       5.77527614
8
Lattice="3.4844571938886775 1.0699039720168207e-32 8.121586955382369e-65 1.0939718758994657e-31 7.010192948756375 -2.0932922914043164e-33 -4.015766010614814e-80 -8.959589980342117e-32 10.859860547555936" Properties=species:S:1:pos:R:3 unique_starting_index=54 config_type=initial n_minim_iter=5 pbc="T T T"
Si       0.84704464       0.67743398       1.44038946
Si       2.63741256       6.33275896       1.44038946
Si       0.89518396       4.18253046       6.87031974
Si       2.58927323       2.82766249       6.87031974
Si       0.92617027       6.16079397       0.37404888
Si       2.55828692       0.84939898       0.37404888
Si       0.81605833       2.65569750       5.80397916
Si       2.66839887       4.35449545       5.80397916
8
Lattice="3.4852790561799623 4.940031717441041e-33 3.958324779727192e-65 9.674326425600706e-32 7.04718209183057 1.0982785723157653e-33 7.352153001876461e-80 -8.531133321688834e-32 11.052255270896005" Properties=species:S:1:pos:R:3 unique_starting_index=54 config_type=initial n_minim_iter=6 pbc="T T T"
Si       0.84685411       0.68138046       1.46948810
Si       2.63842494       6.36580164       1.46948810
Si       0.89578542       4.20497150       6.99561573
Si       2.58949364       2.84221059       6.99561573
Si       0.92556577       6.19252456       0.37709508
Si       2.55971329       0.85465753       0.37709508
Si       0.81707376       2.66893352       5.90322271
Si       2.66820529       4.37824858       5.90322271
8
Lattice="3.462303558423306 -2.937181479225574e-34 2.2980034701705428e-66 8.507272182203855e-32 7.134566395757468 2.9880565185098133e-33 -2.99176349314856e-79 -8.458592048171459e-32 11.754715813601067" Properties=species:S:1:pos:R:3 unique_starting_index=54 config_type=initial n_minim_iter=7 pbc="T T T"
Si       0.84030872       0.68983428       1.57538897
Si       2.62199484       6.44473212       1.57538897
Si       0.89084306       4.25711747       7.45274688
Si       2.57146050       2.87744892       7.45274688
Si       0.91655618       6.26801688       0.38855955
Si       2.54574737       0.86654952       0.38855955
Si       0.81459560       2.70073368       6.26591746
Si       2.64770796       4.43383272       6.26591746
8
Lattice="3.3624976513711498 -9.21381629010238e-33 -7.945178227654623e-65 6.372973025084253e-32 7.085464987240869 1.9172676861709768e-32 2.0356495534153904e-78 -5.957589449063033e-32 11.835739927077622" Properties=species:S:1:pos:R:3 unique_starting_index=54 config_type=initial n_minim_iter=8 pbc="T T T"
Si       0.81153969       0.68316745       1.58603810
Si       2.55095796       6.40229753       1.58603810
Si       0.86970913       4.22589995       7.50390807
Si       2.49278852       2.85956504       7.50390807
Si       0.88474558       6.22700799       0.39144773
Si       2.47775207       0.85845700       0.39144773
Si       0.79650324       2.68427549       6.30931769
Si       2.56599441       4.40118949       6.30931769
8
Lattice="3.4009182739192623 -1.6709813399117684e-32 -1.3009086780829497e-64 4.737113536147509e-32 7.063562576113273 2.5642191076520137e-32 -1.1583493438507927e-77 -4.997828985516635e-32 11.961852060621993" Properties=species:S:1:pos:R:3 unique_starting_index=54 config_type=initial n_minim_iter=9 pbc="T T T"
Si       0.82212492       0.67994130       1.60510815
Si       2.57879336       6.38362128       1.60510815
Si       0.87833422       4.21172259       7.58603418
Si       2.52258406       2.85183999       7.58603418
Si       0.89463434       6.20858550       0.39344818
Si       2.50628393       0.85497708       0.39344818
Si       0.80582480       2.67680421       6.37437421
Si       2.59509348       4.38675837       6.37437421
8
Lattice="3.4091275383235806 -2.1401224422100484e-32 -1.5551617693649287e-64 3.673445613079274e-32 7.024182661746208 2.7723851213211646e-32 7.154900754961771e-77 -4.71367340176382e-32 12.097272290377424" Properties=species:S:1:pos:R:3 unique_starting_index=54 config_type=initial n_minim_iter=10 pbc="T T T"
Si       0.82451694       0.67420894       1.62551819
Si       2.58461060       6.34997372       1.62551819
Si       0.88004683       4.18630027       7.67415434
Si       2.52908071       2.83788239       7.67415434
Si       0.89647910       6.17517639       0.39566381
Si       2.51264844       0.84900627       0.39566381
Si       0.80808467       2.66308506       6.44429996
Si       2.60104287       4.36109760       6.44429996
8
Lattice="3.3909862359445646 -2.432283294937848e-32 -1.6736860329830438e-64 2.996185061266298e-32 7.002709949820556 2.821057478509943e-32 -4.93489403484969e-76 -4.6437198277348023e-32 12.132023516787779" Properties=species:S:1:pos:R:3 unique_starting_index=54 config_type=initial n_minim_iter=11 pbc="T T T"
Si       0.81941958       0.67130697       1.63047651
Si       2.57156666       6.33140298       1.63047651
Si       0.87607354       4.17266194       7.69648826
Si       2.51491270       2.83004801       7.69648826
Si       0.89057211       6.15709935       0.39651165
Si       2.50041413       0.84561060       0.39651165
Si       0.80492101       2.65574437       6.46252341
Si       2.58606523       4.34696558       6.46252341
8
Lattice="3.3953418252249348 -2.6633588605776175e-32 -1.5608106355386654e-64 2.4801813675857754e-32 6.995191994561565 2.386562750058465e-32 3.589287101180009e-75 -5.326461321435474e-32 12.166465990432123" Properties=species:S:1:pos:R:3 unique_starting_index=54 config_type=initial n_minim_iter=12 pbc="T T T"
Si       0.82102784       0.67034245       1.63570162
Si       2.57431399       6.32484954       1.63570162
Si       0.87664307       4.16793845       7.71893462
Si       2.51869875       2.82725355       7.71893462
Si       0.89166439       6.15086393       0.39704109
Si       2.50367743       0.84432806       0.39704109
Si       0.80600652       2.65326794       6.48027409
Si       2.58933531       4.34192406       6.48027409
8
Lattice="3.3919442377046387 -2.844130893895374e-32 3.543366798066876e-64 2.071295747344549e-32 6.987701463039845 -9.279613048479509e-32 -2.6808012063870285e-74 -2.331234717507433e-31 12.185003815147198" Properties=species:S:1:pos:R:3 unique_starting_index=54 config_type=initial n_minim_iter=13 pbc="T T T"
Si       0.82027652       0.66940686       1.63841390
Si       2.57166772       6.31829461       1.63841390
Si       0.87569560       4.16325759       7.73091580
Si       2.51624864       2.82444387       7.73091580
Si       0.89037161       6.14464910       0.39742607
Si       2.50157263       0.84305236       0.39742607
Si       0.80560051       2.65079837       6.48992798
Si       2.58634373       4.33690309       6.48992798
8
Lattice="3.388001619891782 -2.9905345016136076e-32 -5.5401165489050716e-64 1.7325072634084965e-32 6.974545354229931 1.0592302819617338e-31 2.058128645245603e-73 7.283219499805688e-32 12.223453894446608" Properties=species:S:1:pos:R:3 unique_starting_index=54 config_type=initial n_minim_iter=14 pbc="T T T"
Si       0.81973258       0.66784768       1.64406604
Si       2.56826904       6.30669768       1.64406604
Si       0.87426823       4.15512036       7.75579299
Si       2.51373339       2.81942500       7.75579299
Si       0.88858051       6.13383396       0.39819807
Si       2.49942111       0.84071139       0.39819807
Si       0.80542030       2.64656129       6.50992502
Si       2.58258132       4.32798407       6.50992502
8
Lattice="3.3688942598405633 -3.098028948410166e-32 -6.931245235354722e-64 1.4318365084872374e-32 6.920102257529825 1.364745264597638e-31 -1.7006192300115849e-72 1.1796988536764075e-31 12.376163792538962" Properties=species:S:1:pos:R:3 unique_starting_index=54 config_type=initial n_minim_iter=15 pbc="T T T"
Si       0.81720169       0.66179805       1.66633556
Si       2.55169257       6.25830421       1.66633556
Si       0.86724544       4.12184918       7.85441746
Si       2.50164882       2.79825308       7.85441746
Si       0.87973399       6.08945673       0.40144294
Si       2.48916027       0.83064553       0.40144294
Si       0.80471314       2.62940560       6.58952483
Si       2.56418112       4.29069666       6.58952483
8
Lattice="3.338825894432554 -3.157033230628003e-32 2.1959858518521224e-63 1.19853413624575e-32 6.831177704861129 -4.768086102393519e-31 1.6482639144728322e-71 -8.166270938665044e-31 12.526174199886722" Properties=species:S:1:pos:R:3 unique_starting_index=54 config_type=initial n_minim_iter=16 pbc="T T T"
Si       0.81279028       0.65226740       1.68776509
Si       2.52603562       6.17891031       1.68776509
Si       0.85662267       4.06785625       7.95085219
Si       2.48220322       2.76332146       7.95085219
Si       0.86552342       6.01691105       0.40507677
Si       2.47330247       0.81426665       0.40507677
Si       0.80388952       2.60132220       6.66816387
Si       2.53493637       4.22985550       6.66816387
8
Lattice="3.3454173227282227 -3.2013914915550496e-32 -2.622701175198823e-63 1.0922827176610339e-32 6.822017154305076 5.223787255767691e-31 -1.8118679965220963e-70 7.217378306179297e-31 12.555050949901558" Properties=species:S:1:pos:R:3 unique_starting_index=54 config_type=initial n_minim_iter=17 pbc="T T T"
Si       0.81525509       0.65131090       1.69219319
Si       2.53016224       6.17070626       1.69219319
Si       0.85745357       4.06231947       7.96971867
Si       2.48796375       2.75969768       7.96971867
Si       0.86702747       6.00947726       0.40547333
Si       2.47838985       0.81253990       0.40547333
Si       0.80568119       2.59846868       6.68299880
Si       2.53973614       4.22354847       6.68299880
8
Lattice="3.343271171503298 -3.237098420760931e-32 3.099978449124482e-63 1.0033336139935483e-32 6.813302162492728 -6.541350072928282e-31 2.020293230666931e-69 -1.090172588154799e-30 12.56611894717437" Properties=species:S:1:pos:R:3 unique_starting_index=54 config_type=initial n_minim_iter=18 pbc="T T T"
Si       0.81510011       0.65043675       1.69377667
Si       2.52817106       6.16286542       1.69377667
Si       0.85653547       4.05708783       7.97683614
Si       2.48673570       2.75621434       7.97683614
Si       0.86587391       6.00242665       0.40573906
Si       2.47739726       0.81087551       0.40573906
Si       0.80576168       2.59577557       6.68879854
Si       2.53750950       4.21752659       6.68879854
8
Lattice="3.340832745157616 -3.2666962892183324e-32 -3.848054625883529e-63 9.231952889245423e-33 6.800359729588673 7.6106294616252555e-31 -2.2819440999045775e-68 1.0888673070585066e-30 12.583955304186413" Properties=species:S:1:pos:R:3 unique_starting_index=54 config_type=initial n_minim_iter=19 pbc="T T T"
Si       0.81509219       0.64915196       1.69635401
Si       2.52574056       6.15120777       1.69635401
Si       0.85532419       4.04933183       7.98833166
Si       2.48550856       2.75102790       7.98833166
Si       0.86437539       5.99197498       0.40614178
Si       2.47645736       0.80838475       0.40614178
Si       0.80604098       2.59179511       6.69811943
Si       2.53479176       4.20856462       6.69811943
8
Lattice="3.3257965291298013 -3.26828084233975e-32 4.647645014104335e-63 8.200349010178186e-33 6.712344503258613 -9.604318374610967e-31 2.6948118297316723e-67 -1.5463135995933584e-30 12.710058804311553" Properties=species:S:1:pos:R:3 unique_starting_index=54 config_type=initial n_minim_iter=20 pbc="T T T"
Si       0.81548871       0.64059896       1.71463533
Si       2.51030782       6.07174554       1.71463533
Si       0.84740956       3.99677121       8.06966473
Si       2.47838697       2.71557329       8.06966473
Si       0.85443345       5.92114242       0.40892952
Si       2.47136308       0.79120208       0.40892952
Si       0.80846482       2.56497017       6.76395892
Si       2.51733171       4.14737433       6.76395892
8
Lattice="3.33714758673286 -3.2751975734899146e-32 -7.474338353434652e-63 7.817730178612661e-33 6.689412542330615 1.481060722745191e-30 -3.521430089487433e-66 2.2060493691976786e-30 12.782829342204968" Properties=species:S:1:pos:R:3 unique_starting_index=54 config_type=initial n_minim_iter=21 pbc="T T T"
Si       0.81802043       0.64072425       1.72517394
Si       2.51912715       6.04868829       1.72517394
Si       0.85055336       3.98543052       8.11658861
Si       2.48659423       2.70398202       8.11658861
Si       0.85256579       5.90635932       0.41054922
Si       2.48458180       0.78305322       0.41054922
Si       0.81600800       2.56165305       6.80196390
Si       2.52113958       4.12775949       6.80196390
8
Lattice="3.320792793485969 -3.2803728884694825e-32 1.252885477483982e-62 7.616628043105678e-33 6.684465905160339 -2.5334684025194202e-30 4.710141990350375e-65 -3.983147855917604e-30 12.757090208369151" Properties=species:S:1:pos:R:3 unique_starting_index=54 config_type=initial n_minim_iter=22 pbc="T T T"
Si       0.81461645       0.64047485       1.72089769
Si       2.50617634       6.04399106       1.72089769
Si       0.84577995       3.98270780       8.09944279
Si       2.47501285       2.70175810       8.09944279
Si       0.84828616       5.90272798       0.41052505
Si       2.47250664       0.78173792       0.41052505
Si       0.81211024       2.56049503       6.78907015
Si       2.50868255       4.12397087       6.78907015
8
Lattice="3.3230599251986193 -3.28888694913053e-32 -2.232955131580644e-62 7.417997326820872e-33 6.6831489406793105 4.4129430587085155e-30 -6.312113075940372e-64 6.71907580313974e-30 12.765679691894595" Properties=species:S:1:pos:R:3 unique_starting_index=54 config_type=initial n_minim_iter=23 pbc="T T T"
Si       0.81535743       0.64064868       1.72217398
Si       2.50770250       6.04250026       1.72217398
Si       0.84617254       3.98222315       8.10501382
Si       2.47688739       2.70092579       8.10501382
Si       0.84865808       5.90214761       0.41068387
Si       2.47440185       0.78100133       0.41068387
Si       0.81287189       2.56057314       6.79352371
Si       2.51018804       4.12257580       6.79352371
8
Lattice="3.3222846151732335 -3.2965453953422353e-32 5.277963355720452e-62 7.231909257072923e-33 6.681778886070205 -1.0073548616917132e-29 8.485311057988088e-63 -1.560370843755835e-29 12.767343395344346" Properties=species:S:1:pos:R:3 unique_starting_index=54 config_type=initial n_minim_iter=24 pbc="T T T"
Si       0.81534887       0.64074274       1.72235789
Si       2.50693575       6.04103615       1.72235789
Si       0.84579344       3.98163218       8.10602959
Si       2.47649117       2.70014671       8.10602959
Si       0.84831327       5.90140305       0.41077792
Si       2.47397135       0.78037583       0.41077792
Si       0.81282904       2.56051361       6.79444962
Si       2.50945558       4.12126528       6.79444962
8
Lattice="3.3220398093788037 -3.3039737775777327e-32 -2.9538073183518225e-61 7.052881816352095e-33 6.680499036275787 5.222639562911014e-29 -1.1431820211449362e-61 8.039439327015803e-29 12.770083920383897" Properties=species:S:1:pos:R:3 unique_starting_index=54 config_type=initial n_minim_iter=25 pbc="T T T"
Si       0.81545745       0.64086174       1.72271274
Si       2.50658236       6.03963730       1.72271274
Si       0.84556246       3.98111126       8.10775470
Si       2.47647735       2.69938778       8.10775470
Si       0.84809187       5.90075620       0.41088095
Si       2.47394794       0.77974283       0.41088095
Si       0.81292804       2.56050668       6.79592291
Si       2.50911177       4.11999235       6.79592291
8
Lattice="3.3031582107016333 -3.2760687064549685e-32 3.4313127905634605e-60 6.475756176848677e-33 6.576056920790143 -5.885680699561927e-28 1.6323635202451185e-60 -8.969454689045897e-28 13.005375738463542" Properties=species:S:1:pos:R:3 unique_starting_index=54 config_type=initial n_minim_iter=26 pbc="T T T"
Si       0.82447407       0.65153411       1.75318025
Si       2.47868414       5.92452281       1.75318025
Si       0.82710503       3.93956257       8.25586812
Si       2.47605318       2.63649435       8.25586812
Si       0.82961514       5.84936228       0.41972541
Si       2.47354307       0.72669464       0.41972541
Si       0.82196397       2.56133382       6.92241328
Si       2.48119424       4.01472310       6.92241328
8
Lattice="3.289527130162479 -3.276570128556993e-32 -5.461426830747464e-59 6.51441349810623e-33 6.582713767106575 9.318609238091602e-27 -2.654395290923764e-59 1.4382398335443092e-26 12.987204369472835" Properties=species:S:1:pos:R:3 unique_starting_index=54 config_type=initial n_minim_iter=27 pbc="T T T"
Si       0.82053520       0.65380394       1.75009954
Si       2.46899193       5.92890983       1.75009954
Si       0.82422837       3.94516082       8.24370173
Si       2.46529876       2.63755294       8.24370173
Si       0.82553562       5.85755006       0.41977009
Si       2.46399151       0.72516370       0.41977009
Si       0.81922794       2.56619318       6.91337227
Si       2.47029919       4.01652059       6.91337227
8
Lattice="3.2979189454529374 -3.2784142184633275e-32 8.884855198783262e-58 6.506822327091506e-33 6.584362015123451 -1.5148917461245632e-25 4.348775649638038e-58 -2.3332309331312286e-25 13.010144258661205" Properties=species:S:1:pos:R:3 unique_starting_index=54 config_type=initial n_minim_iter=28 pbc="T T T"
Si       0.82255138       0.65439605       1.75376728
Si       2.47536757       5.92996596       1.75376728
Si       0.82640809       3.94657706       8.25883941
Si       2.47151085       2.63778496       8.25883941
Si       0.82753459       5.85963107       0.41993509
Si       2.47038436       0.72473094       0.41993509
Si       0.82142489       2.56745007       6.92500722
Si       2.47649406       4.01691195       6.92500722
8
Lattice="3.296896776603889 -3.2789841360214984e-32 -1.463775440171689e-56 6.504966259220373e-33 6.585492367119407 2.4955580949366957e-24 -7.157269340079091e-57 3.8461774494874324e-24 13.01099450874339" Properties=species:S:1:pos:R:3 unique_starting_index=54 config_type=initial n_minim_iter=29 pbc="T T T"
Si       0.82223884       0.65490018       1.75386845
Si       2.47465794       5.93059219       1.75386845
Si       0.82620955       3.94764636       8.25936570
Si       2.47068723       2.63784601       8.25936570
Si       0.82719069       5.86121213       0.41997598
Si       2.46970609       0.72428024       0.41997598
Si       0.82125770       2.56846594       6.92547324
Si       2.47563908       4.01702642       6.92547324
8
Lattice="3.2962620655509745 -3.2797862179608046e-32 2.41184427038676e-55 6.500869219004062e-33 6.586821160250604 -4.1110321355613784e-23 1.1801274375238017e-55 -6.335483286889616e-23 13.013650168498392" Properties=species:S:1:pos:R:3 unique_starting_index=54 config_type=initial n_minim_iter=30 pbc="T T T"
Si       0.82201805       0.65552889       1.75425146
Si       2.47424401       5.93129227       1.75425146
Si       0.82611298       3.94893947       8.26107655
Si       2.47014909       2.63788169       8.26107655
Si       0.82693118       5.86312929       0.42003667
Si       2.46933088       0.72369187       0.42003667
Si       0.82119985       2.56971871       6.92686175
Si       2.47506222       4.01710245       6.92686175
8
Lattice="3.2943039237002507 -3.281539929517625e-32 -3.9889848066859647e-54 6.50503265842874e-33 6.59099612123774 6.79637607933794e-22 -1.9540906883591304e-54 1.047331738785341e-21 13.024134144704096" Properties=species:S:1:pos:R:3 unique_starting_index=54 config_type=initial n_minim_iter=31 pbc="T T T"
Si       0.82135620       0.65771611       1.75578009
Si       2.47294772       5.93328001       1.75578009
Si       0.82579576       3.95321417       8.26784717
Si       2.46850816       2.63778195       8.26784717
Si       0.82613137       5.86949530       0.42025967
Si       2.46817255       0.72150083       0.42025967
Si       0.82102059       2.57399724       6.93232675
Si       2.47328333       4.01699889       6.93232675
8
Lattice="3.2918642279343073 -3.2830259468434035e-32 6.655052875607637e-53 6.492340138424643e-33 6.5931974611529975 -1.1333295256269816e-20 3.2656925053461065e-53 -1.7462715658463264e-20 13.035567511158881" Properties=species:S:1:pos:R:3 unique_starting_index=54 config_type=initial n_minim_iter=32 pbc="T T T"
Si       0.82072566       0.65979075       1.75745049
Si       2.47113857       5.93340671       1.75745049
Si       0.82520646       3.95638948       8.27523425
Si       2.46665777       2.63680798       8.27523425
Si       0.82535485       5.87434497       0.42049953
Si       2.46650938       0.71885249       0.42049953
Si       0.82057726       2.57774624       6.93828329
Si       2.47128696       4.01545122       6.93828329
8
Lattice="3.2601270533976408 -3.282483843623e-32 -1.1748255817223358e-51 6.472892169694814e-33 6.595373271332671 1.9969737016807863e-19 -5.781088186078823e-52 3.061610378483585e-19 13.257506410857287" Properties=species:S:1:pos:R:3 unique_starting_index=54 config_type=initial n_minim_iter=33 pbc="T T T"
Si       0.81342483       0.68879386       1.79051711
Si       2.44670222       5.90657941       1.79051711
Si       0.81663870       3.98648050       8.41927032
Si       2.44348836       2.60889277       8.41927032
Si       0.81584908       5.92300153       0.42451391
Si       2.44427797       0.67237174       0.42451391
Si       0.81421444       2.62531489       7.05326711
Si       2.44591261       3.97005838       7.05326711
8
Lattice="3.171269071284923 -3.2866577891410475e-32 2.153421549974299e-50 6.491952827692025e-33 6.6192120960511724 -3.659732722700141e-18 1.057135807511527e-50 -5.708587144125257e-18 12.850108851475737" Properties=species:S:1:pos:R:3 unique_starting_index=54 config_type=initial n_minim_iter=34 pbc="T T T"
Si       0.79466499       0.67700564       1.72381918
Si       2.37660408       5.94220646       1.72381918
Si       0.79096954       3.98661169       8.14887360
Si       2.38029953       2.63260041       8.14887360
Si       0.79443298       5.93458727       0.42314488
Si       2.37683609       0.68462483       0.42314488
Si       0.79120156       2.62498122       6.84819930
Si       2.38006751       3.99423088       6.84819930
8
Lattice="3.2821360815294205 -3.32962191282335e-32 -3.413696787921054e-49 6.497836491829545e-33 6.688306711189722 5.741655244776742e-17 -1.7745839182909452e-49 8.840147184988783e-17 12.990483201371703" Properties=species:S:1:pos:R:3 unique_starting_index=54 config_type=initial n_minim_iter=35 pbc="T T T"
Si       0.82234753       0.68594871       1.74630816
Si       2.45978855       6.00235800       1.74630816
Si       0.81872051       4.03010206       8.24154976
Si       2.46341557       2.65820465       8.24154976
Si       0.82211564       5.99476646       0.42410929
Si       2.46002044       0.69354026       0.42410929
Si       0.81895240       2.65061310       6.91935089
Si       2.46318368       4.03769361       6.91935089
8
Lattice="3.2758676283262456 -3.3268106671315324e-32 5.706707168218405e-48 6.12483507777008e-33 6.650346091306846 -9.569667259889165e-16 2.962028520162926e-48 -1.4696544806921386e-15 13.058079784585292" Properties=species:S:1:pos:R:3 unique_starting_index=54 config_type=initial n_minim_iter=36 pbc="T T T"
Si       0.82056155       0.68082613       1.75713027
Si       2.45530608       5.96951997       1.75713027
Si       0.81737227       4.00599917       8.28617016
Si       2.45849536       2.64434692       8.28617016
Si       0.82042484       5.96224133       0.42458105
Si       2.45544278       0.68810477       0.42458105
Si       0.81750897       2.63706828       6.95362094
Si       2.45835866       4.01327781       6.95362094
8
Lattice="3.276819231563947 -3.3144425195363e-32 -3.352485614571279e-47 5.7839761791002964e-33 6.5954353048940115 3.562120773958182e-15 -5.300902432400018e-47 5.337337536295173e-15 13.20102194606469" Properties=species:S:1:pos:R:3 unique_starting_index=54 config_type=initial n_minim_iter=37 pbc="T T T"
Si       0.82011812       0.67360663       1.78003323
Si       2.45670111       5.92182867       1.78003323
Si       0.81829150       3.97132429       8.38054420
Si       2.45852773       2.62411102       8.38054420
Si       0.82028809       5.91575342       0.42556051
Si       2.45653114       0.67968189       0.42556051
Si       0.81812153       2.61803577       7.02607149
Si       2.45869770       3.97739954       7.02607149
8
Lattice="3.2547853063122116 -3.314155118900944e-32 2.7802281896032253e-46 5.7308591221310004e-33 6.593188421107831 3.4176967436901806e-15 1.00594090130428e-45 5.129151117764655e-15 13.172700580008808" Properties=species:S:1:pos:R:3 unique_starting_index=54 config_type=initial n_minim_iter=38 pbc="T T T"
Si       0.81390465       0.67352273       1.77533619
Si       2.44088066       5.91966569       1.77533619
Si       0.81348801       3.97011694       8.36168648
Si       2.44129730       2.62307148       8.36168648
Si       0.81417916       5.91471898       0.42552569
Si       2.44060615       0.67846944       0.42552569
Si       0.81321349       2.61812477       7.01187598
Si       2.44157181       3.97506365       7.01187598
8
Lattice="3.270225781373525 -3.3221135681363683e-32 -5.66548539758945e-45 5.701131836017752e-33 6.604106935319751 3.2710642726838e-15 -1.927787716783784e-44 4.90208409901547e-15 13.196010581618022" Properties=species:S:1:pos:R:3 unique_starting_index=54 config_type=initial n_minim_iter=39 pbc="T T T"
Si       0.81776129       0.67497800       1.77907216
Si       2.45246449       5.92912894       1.77907216
Si       0.81735160       3.97703146       8.37707745
Si       2.45287418       2.62707547       8.37707745
Si       0.81797838       5.92435316       0.42568429
Si       2.45224740       0.67975378       0.42568429
Si       0.81713451       2.62229969       7.02368958
Si       2.45309127       3.98180724       7.02368958
8
Lattice="3.269255735788325 -3.325360495648792e-32 1.081531507174322e-43 5.638463241631315e-33 6.605054681139773 3.133567553751091e-15 3.688473038341961e-43 4.691075526635564e-15 13.196263004904631" Properties=species:S:1:pos:R:3 unique_starting_index=54 config_type=initial n_minim_iter=40 pbc="T T T"
Si       0.81746689       0.67514370       1.77908343
Si       2.45178884       5.92991098       1.77908343
Si       0.81716098       3.97767104       8.37721493
Si       2.45209476       2.62738364       8.37721493
Si       0.81767537       5.92537521       0.42571519
Si       2.45158036       0.67967947       0.42571519
Si       0.81695249       2.62284787       7.02384670
Si       2.45230324       3.98220681       7.02384670
8
Lattice="3.268959326098297 -3.3289292217120857e-32 -2.0719616012398745e-42 5.5755758193905175e-33 6.60652368418314 3.001260791726692e-15 -7.065641528281906e-42 4.487952361321877e-15 13.197677353556914" Properties=species:S:1:pos:R:3 unique_starting_index=54 config_type=initial n_minim_iter=41 pbc="T T T"
Si       0.81734524       0.67538100       1.77927831
Si       2.45161409       5.93114268       1.77927831
Si       0.81713443       3.97864284       8.37811698
Si       2.45182490       2.62788084       8.37811698
Si       0.81754188       5.92687236       0.42575663
Si       2.45141745       0.67965132       0.42575663
Si       0.81693779       2.62361052       7.02459530
Si       2.45202154       3.98291316       7.02459530
8
Lattice="3.2663192282971534 -3.3361335945143936e-32 3.984648267724723e-41 5.544377831312626e-33 6.6182576948327245 2.8675134959235618e-15 1.3583735259665914e-40 4.287276071765278e-15 13.209914562719787" Properties=species:S:1:pos:R:3 unique_starting_index=54 config_type=initial n_minim_iter=42 pbc="T T T"
Si       0.81637586       0.67724479       1.78096280
Si       2.44994337       5.94101290       1.78096280
Si       0.81678376       3.98637364       8.38592008
Si       2.44953547       2.63188405       8.38592008
Si       0.81645904       5.93891853       0.42611670
Si       2.44986019       0.67933916       0.42611670
Si       0.81670058       2.62978968       7.03107398
Si       2.44961865       3.98846801       7.03107398
