18
Lattice="12.867195975652965 2.5805128463897495 1.9839957697162178 6.8715561659306905 11.180585614568779 1.98399576971623 6.871556165930677 4.7905845466375 10.295243251155958" Properties=species:S:1:pos:R:3 unique_starting_index=39 config_type=initial n_minim_iter=1 energy=-2929.2655868454863 free_energy=-2929.2655868454863 pbc="T T T"
Si      14.86066370      11.65435904       5.17070840
Si      12.63856475      11.17937780       9.93417478
Si      16.07487545       7.54445169       8.25101590
Si      14.86066370       7.99202612       9.93417478
Si      12.63856475      12.47345394       8.25101590
Si      16.07487545       9.91270848       5.17070840
Si       4.08132817       5.43311723       2.84910014
Si       5.30512261       2.39423822       4.51848111
Si       6.50939513       3.25461665       1.15265760
Si       4.08132817       4.14963407       4.51848111
Si       5.30512261       4.98201050       1.15265760
Si       6.50939513       1.95032753       2.84910014
Si      11.61149266       9.38543663       9.45505138
Si      14.85263118       6.90035958       6.64044906
Si      12.82220894      11.10312329       4.96213566
Si      11.61149266      11.54940923       6.64044906
Si      14.85263118       8.19071033       4.96213566
Si      12.82220894       7.64879993       9.45505138
18
Lattice="12.869808889093468 2.5748121584746566 1.9796128654714888 6.867111010905749 11.185008934154471 1.9796128654715013 6.867111010905741 4.787485555600294 10.300644349222733" Properties=species:S:1:pos:R:3 unique_starting_index=39 config_type=initial n_minim_iter=2 stress="0.0014638021483881548 -4.4508990143886594e-05 -3.422019319841287e-05 -4.4508990143886594e-05 0.0014966153468614534 -2.385700193250669e-05 -3.422019319841287e-05 -2.385700193250669e-05 0.0015093031376987958" pbc="T T T"
Si      14.85754254      11.65371853       5.16579239
Si      12.63287311      11.17814936       9.93481911
Si      16.07319498       7.53900513       8.24966313
Si      14.85754254       7.98711061       9.93481911
Si      12.63287311      12.47376095       8.24966313
Si      16.07319498       9.91000147       5.16579239
Si       4.07880149       5.43435451       2.84831550
Si       5.30383556       2.39201977       4.51987848
Si       6.50968216       3.25313914       1.15015456
Si       4.07880149       4.14919373       4.51987848
Si       5.30383556       4.98279083       1.15015456
Si       6.50968216       1.94752885       2.84831550
Si      11.60663630       9.38366711       9.45618274
Si      14.85155075       6.89558206       6.63844823
Si      12.81886899      11.10320294       4.95803276
Si      11.60663630      11.55004786       6.63844823
Si      14.85155075       8.18754896       4.95803276
Si      12.81886899       7.64485530       9.45618274
18
Lattice="12.843683926366289 2.5544718584634314 1.9639744743534269 6.83899033434058 11.167531261781962 1.9639744743534395 6.838990334340573 4.76788090196128 10.287772447109345" Properties=species:S:1:pos:R:3 unique_starting_index=39 config_type=initial n_minim_iter=3 stress="-0.0028749141373753877 -0.0023135449138632583 -0.0017787407369720856 -0.0023135449138632583 -0.0011693079623364263 -0.0012400695972298915 -0.0017787407369720856 -0.0012400695972298915 -0.0005098058288005261" pbc="T T T"
Si      14.81171136      11.62236284       5.14075153
Si      12.58675479      11.14630347       9.91095155
Si      16.02792306       7.50654122       8.22502031
Si      14.81171136       7.95485285       9.91095155
Si      12.58675479      12.44251110       8.22502031
Si      16.02792306       9.87784358       5.14075153
Si       4.06329707       5.42450871       2.83833889
Si       5.28705257       2.38168199       4.51292716
Si       6.49508159       3.24063422       1.14195033
Si       4.06329707       4.13702198       4.51292716
Si       5.28705257       4.97341634       1.14195033
Si       6.49508159       1.93638661       2.83833889
Si      11.56613219       9.35533027       9.43453878
Si      14.81108301       6.86733074       6.61662518
Si      12.77827205      11.07503801       4.93633839
Si      11.56613219      11.52184871       6.61662518
Si      14.81108301       8.15919871       4.93633839
Si      12.77827205       7.61665160       9.43453878
18
Lattice="12.852404492070606 2.5578030419120537 1.9665356140429515 6.84513206282452 11.174561497951625 1.9665356140429642 6.845132062824511 4.772162678731243 10.29390841034283" Properties=species:S:1:pos:R:3 unique_starting_index=39 config_type=initial n_minim_iter=4 stress="-0.0011208181129516053 -0.0025952504749285447 -0.001995326615335253 -0.0025952504749285447 0.0007924688127894714 -0.0013910649375629307 -0.001995326615335253 -0.0013910649375629307 0.001532274301344352" pbc="T T T"
Si      14.82221241      11.63015661       5.14569932
Si      12.59675251      11.15380993       9.91721207
Si      16.03886777       7.51316217       8.23066583
Si      14.82221241       7.96163734       9.91721207
Si      12.59675251      12.45049040       8.23066583
Si      16.03886777       9.88500097       5.14569932
Si       4.06918293       5.42997805       2.83864103
Si       5.29068103       2.38661749       4.51813517
Si       6.50224909       3.24185931       1.14538170
Si       4.06918293       4.13871950       4.51813517
Si       5.29068103       4.97971778       1.14538170
Si       6.50224909       1.94001757       2.83864103
Si      11.57651693       9.36176426       9.43968722
Si      14.82089457       6.87478187       6.62152003
Si      12.78790067      11.08194569       4.94228138
Si      11.57651693      11.52847767       6.62152003
Si      14.82089457       8.16584398       4.94228138
Si      12.78790067       7.62417016       9.43968722
18
Lattice="12.866749945201004 2.570406546064638 1.9762256642038385 6.861919313732552 11.183662517091886 1.976225664203851 6.861919313732542 4.783866104103694 10.300213603128423" Properties=species:S:1:pos:R:3 unique_starting_index=39 config_type=initial n_minim_iter=5 stress="0.0013675282745823426 -0.00026252086581272634 -0.00020183595984426994 -0.00026252086581272634 0.0015610655632435268 -0.00014071226471187517 -0.00020183595984426994 -0.00014071226471187517 0.0016359001039838478" pbc="T T T"
Si      14.84661844      11.64616825       5.16068795
Si      12.62264574      11.17027668       9.92883415
Si      16.06233241       7.53210915       8.24359288
Si      14.84661844       7.98023731       9.92883415
Si      12.62264574      12.46595384       8.24359288
Si      16.06233241       9.90236293       5.16068795
Si       4.08193895       5.43678069       2.84498348
Si       5.30248432       2.39586169       4.52307945
Si       6.51304375       3.25045990       1.15304485
Si       4.08193895       4.14659711       4.52307945
Si       5.30248432       4.98687162       1.15304485
Si       6.51304375       1.94963356       2.84498348
Si      11.60044483       9.37846608       9.44911082
Si      14.84174263       6.89259875       6.63523924
Si      12.81184754      11.09533789       4.95597430
Si      11.60044483      11.54187686       6.63523924
Si      14.84174263       8.18368108       4.95597430
Si      12.81184754       7.64084478       9.44911082
18
Lattice="12.871438664808206 2.572196338301952 1.9776017240953718 6.865220307876245 11.18744284584359 1.9776017240953843 6.865220307876235 4.786167430200935 10.303513349253539" Properties=species:S:1:pos:R:3 unique_starting_index=39 config_type=initial n_minim_iter=6 stress="0.0008866248822931575 -0.00027048870113180587 -0.0002079619326671318 -0.00027048870113180587 0.0010860362687668062 -0.00014498305724075085 -0.0002079619326671318 -0.00014498305724075085 0.0011631421310519699" pbc="T T T"
Si      14.85234386      11.64896222       5.16344879
Si      12.62780310      11.17447762       9.93082480
Si      16.06693417       7.53590946       8.24714117
Si      14.85234386       7.98362343       9.93082480
Si      12.62780310      12.46895720       8.24714117
Si      16.06693417       9.90676867       5.16344879
Si       4.08291575       5.44203649       2.84829302
Si       5.30709046       2.39520484       4.52730824
Si       6.51831303       3.25342668       1.15132334
Si       4.08291575       4.15114616       4.52730824
Si       5.30709046       4.99078959       1.15132334
Si       6.51831303       1.94873227       2.84829302
Si      11.60527397       9.38191763       9.45277768
Si      14.84757011       6.89559744       6.63763254
Si      12.81675630      11.09973924       4.95825725
Si      11.60527397      11.54630756       6.63763254
Si      14.84757011       8.18676462       4.95825725
Si      12.81675630       7.64418213       9.45277768
18
Lattice="12.869898637778446 2.570575950252388 1.976355908543579 6.863167282671116 11.186558296132901 1.9763559085435913 6.863167282671105 4.784736140026765 10.302978659607952" Properties=species:S:1:pos:R:3 unique_starting_index=39 config_type=initial n_minim_iter=7 stress="0.0001060689868893835 -4.8171701904418434e-05 -3.703622438504981e-05 -4.8171701904418434e-05 0.00014158243282799956 -2.5820230517740035e-05 -3.703622438504981e-05 -2.5820230517740035e-05 0.00015531432107576568" pbc="T T T"
Si      14.84946807      11.64624052       5.16176407
Si      12.62462455      11.17258433       9.92862745
Si      16.06338580       7.53382981       8.24587615
Si      14.84946807       7.98129586       9.92862745
Si      12.62462455      12.46634711       8.24587615
Si      16.06338580       9.90501170       5.16176407
Si       4.08171969       5.44138924       2.84811031
Si       5.30635504       2.39420120       4.52672968
Si       6.51729204       3.25301923       1.15050208
Si       4.08171969       4.15080324       4.52672968
Si       5.30635504       4.98997254       1.15050208
Si       6.51729204       1.94783389       2.84811031
Si      11.60244520       9.37950244       9.45193450
Si      14.84524482       6.89343974       6.63551515
Si      12.81351179      11.09845697       4.95671614
Si      11.60244520      11.54487205       6.63551515
Si      14.84524482       8.18416384       4.95671614
Si      12.81351179       7.64236326       9.45193450
18
Lattice="12.873474981268538 2.5725552343739495 1.9778776569548444 6.86626134322003 11.189229361035261 1.9778776569548566 6.8662613432200175 4.786893199984374 10.305168955998653" Properties=species:S:1:pos:R:3 unique_starting_index=39 config_type=initial n_minim_iter=8 stress="-0.0005703070259757686 0.0004848361353770888 0.00037276033829183495 0.0004848361353770888 -0.0009277409800104103 0.00025987416431944894 0.00037276033829183495 0.00025987416431944894 -0.0010659490017102503" pbc="T T T"
Si      14.85322757      11.64957469       5.16533560
Si      12.62996733      11.17462169       9.93093183
Si      16.06781448       7.53789155       8.24725290
Si      14.85322757       7.98560426       9.93093183
Si      12.62996733      12.46909766       8.24725290
Si      16.06781448       9.90738601       5.16533560
Si       4.08465188       5.44337885       2.85017311
Si       5.30971941       2.39608610       4.52812237
Si       6.52017301       3.25554294       1.15196578
Si       4.08465188       4.15330806       4.52812237
Si       5.30971941       4.99180284       1.15196578
Si       6.52017301       1.94989699       2.85017311
Si      11.60634973       9.38173982       9.45666031
Si      14.85141998       6.89532484       6.63646294
Si      12.81696153      11.10376668       4.95829437
Si      11.60634973      11.55001411       6.63646294
Si      14.85141998       8.18556424       4.95829437
Si      12.81696153       7.64525299       9.45666031
18
Lattice="12.892861017851793 2.587971079740473 1.9897299412930427 6.887430727321002 11.20208719442807 1.989729941293055 6.887430727320991 4.801651679997788 10.314549136768997" Properties=species:S:1:pos:R:3 unique_starting_index=39 config_type=initial n_minim_iter=9 stress="-0.0018277665687617185 0.0013372493136074258 0.0010281277944258007 0.0013372493136074258 -0.0028136219429956764 0.0007167711366959911 0.0010281277944258007 0.0007167711366959911 -0.003194819978130674" pbc="T T T"
Si      14.87918535      11.66578446       5.19005585
Si      12.66526941      11.18927402       9.94024452
Si      16.09200173       7.56659988       8.25901994
Si      14.87918535       8.01365994       9.94024452
Si      12.66526941      12.48186300       8.25901994
Si      16.09200173       9.92613542       5.19005585
Si       4.10481938       5.45576929       2.86053368
Si       5.32907694       2.41044468       4.53743420
Si       6.53877398       3.26931714       1.16344916
Si       4.10481938       4.16650482       4.53743420
Si       5.32907694       5.00449185       1.16344916
Si       6.53877398       1.96453444       2.86053368
Si      11.63037037       9.39884876       9.48388369
Si      14.88853865       6.90724300       6.64600135
Si      12.84132246      11.13434706       4.96736106
Si      11.63037037      11.58071993       6.64600135
Si      14.88853865       8.19784508       4.96736106
Si      12.84132246       7.66187382       9.48388369
18
Lattice="12.916967034596595 2.5961884722093953 1.9960477830814485 6.903478385176147 11.221863398807399 1.9960477830814607 6.903478385176136 4.812839489552741 10.332037598733349" Properties=species:S:1:pos:R:3 unique_starting_index=39 config_type=initial n_minim_iter=10 stress="0.0007863045141788144 0.0007172030550437383 0.0005514128051071109 0.0007172030550437383 0.00025756355387447416 0.00038442378977932424 0.0005514128051071109 0.00038442378977932424 5.311671468267769e-05" pbc="T T T"
Si      14.90042628      11.68177859       5.21087334
Si      12.69534919      11.20082427       9.95035177
Si      16.11435525       7.59041833       8.26758489
Si      14.90042628       8.03788852       9.95035177
Si      12.69534919      12.49459901       8.26758489
Si      16.11435525       9.94053366       5.21087334
Si       4.12319428       5.47073929       2.87120535
Si       5.34871855       2.42278802       4.54915901
Si       6.55917532       3.28273047       1.17236489
Si       4.12319428       4.18066512       4.54915901
Si       5.34871855       5.01899492       1.17236489
Si       6.55917532       1.97659774       2.87120535
Si      11.64954027       9.41119236       9.51641017
Si      14.92763929       6.91326079       6.64957165
Si      12.85953445      11.16930635       4.97225924
Si      11.64954027      11.61532612       6.64957165
Si      14.92763929       8.20284194       4.97225924
Si      12.85953445       7.67559144       9.51641017
18
Lattice="12.919705411415435 2.5990582056643365 1.9982541425819562 6.907118118098007 11.223440238038867 1.9982541425819684 6.907118118097996 4.815376971291711 10.332994484636574" Properties=species:S:1:pos:R:3 unique_starting_index=39 config_type=initial n_minim_iter=11 stress="-0.0004266622422657851 0.0001878100769110473 0.0001443954827121377 0.0001878100769110473 -0.0005651207718721879 0.00010066697431843466 0.0001443954827121377 0.00010066697431843466 -0.0006186581575687157" pbc="T T T"
Si      14.90499894      11.68544099       5.21575962
Si      12.70224454      11.20315597       9.95263548
Si      16.11937314       7.59591756       8.26925141
Si      14.90499894       8.04355187       9.95263548
Si      12.70224454      12.49740524       8.26925141
Si      16.11937314       9.94355742       5.21575962
Si       4.12564438       5.47178803       2.87194745
Si       5.35049175       2.42474566       4.54998182
Si       6.56100674       3.28394521       1.17404533
Si       4.12564438       4.18165181       4.54998182
Si       5.35049175       5.02029318       1.17404533
Si       6.56100674       1.97853391       2.87194745
Si      11.65319651       9.41448893       9.52144372
Si      14.93426302       6.91471592       6.65146397
Si      12.86389213      11.17475946       4.97317921
Si      11.65319651      11.62103779       6.65146397
Si      14.93426302       8.20504465       4.97317921
Si      12.86389213       7.67788186       9.52144372
18
Lattice="12.919283494909735 2.5994708323602365 1.9985713855750624 6.907359353631301 11.222901647521471 1.9985713855750746 6.907359353631289 4.815545151422965 10.332392456144259" Properties=species:S:1:pos:R:3 unique_starting_index=39 config_type=initial n_minim_iter=12 stress="-1.4292767911323828e-05 -0.0001010500194778815 -7.769107271050886e-05 -0.0001010500194778815 6.020396485246962e-05 -5.416322639933755e-05 -7.769107271050886e-05 -5.416322639933755e-05 8.90094153383144e-05" pbc="T T T"
Si      14.90581205      11.68564648       5.21626775
Si      12.70303607      11.20373080       9.95270349
Si      16.11984718       7.59658642       8.26978946
Si      14.90581205       8.04409574       9.95270349
Si      12.70303607      12.49761869       8.26978946
Si      16.11984718       9.94424928       5.21626775
Si       4.12457815       5.47154959       2.87140006
Si       5.34956912       2.42394939       4.54989207
Si       6.56041424       3.28318030       1.17329887
Si       4.12457815       4.18106152       4.54989207
Si       5.34956912       5.02000181       1.17329887
Si       6.56041424       1.97761595       2.87140006
Si      11.65401916       9.41558142       9.51929016
Si      14.93285817       6.91611052       6.65307320
Si      12.86520172      11.17277948       4.97411343
Si      11.65401916      11.61923730       6.65307320
Si      14.93285817       8.20695823       4.97411343
Si      12.86520172       7.67827589       9.51929016
18
Lattice="12.927690391165013 2.606261803228841 2.0037925405460326 6.916638860497859 11.228440956350077 2.003792540546045 6.916638860497846 4.822014466541966 10.33640398495765" Properties=species:S:1:pos:R:3 unique_starting_index=39 config_type=initial n_minim_iter=13 stress="0.0006010914502792556 -5.498455947550269e-05 -4.2274206680337614e-05 -5.498455947550269e-05 0.0006416275140440262 -2.947195021512452e-05 -4.2274206680337614e-05 -2.947195021512452e-05 0.0006573014843632356" pbc="T T T"
Si      14.91867995      11.69391609       5.23095072
Si      12.72279473      11.21016177       9.95692210
Si      16.13205697       7.61314402       8.27492035
Si      14.91867995       8.06041074       9.95692210
Si      12.72279473      12.50334827       8.27492035
Si      16.13205697       9.95346287       5.23095072
Si       4.12937625       5.47574928       2.87414260
Si       5.35472812       2.42716140       4.55324592
Si       6.56601424       3.28661440       1.17554113
Si       4.12937625       4.18479121       4.55324592
Si       5.35472812       5.02406846       1.17554113
Si       6.56601424       1.98066541       2.87414260
Si      11.66745318       9.42514912       9.52554489
Si      14.94548314       6.92577443       6.66071222
Si      12.87882529      11.18121301       4.98148969
Si      11.66745318      11.62774071       6.66071222
Si      14.94548314       8.21682416       4.98148969
Si      12.87882529       7.68757170       9.52554489
18
Lattice="12.947154460078975 2.6203379406701686 2.0146148068163243 6.936578205817875 11.241835363099295 2.0146148068163368 6.936578205817863 4.835915410848255 10.346567415814505" Properties=species:S:1:pos:R:3 unique_starting_index=39 config_type=initial n_minim_iter=14 stress="-5.1725779967792484e-05 -8.40779849290433e-05 -6.464233133672272e-05 -8.40779849290433e-05 1.0258722436026534e-05 -4.506614601641197e-05 -6.464233133672272e-05 -4.506614601641197e-05 3.422610259491574e-05" pbc="T T T"
Si      14.94489611      11.71320579       5.26566998
Si      12.76799565      11.22144064       9.96664171
Si      16.15922342       7.65130409       8.28332264
Si      14.94489611       8.09892112       9.96664171
Si      12.76799565      12.51563993       8.28332264
Si      16.15922342       9.97138947       5.26566998
Si       4.14039165       5.48392788       2.88091978
Si       5.36665536       2.43450481       4.55940823
Si       6.57749792       3.29509311       1.18105430
Si       4.14039165       4.19344254       4.55940823
Si       5.36665536       5.03191095       1.18105430
Si       6.57749792       1.98817231       2.88091978
Si      11.69588190       9.44491181       9.54299279
Si      14.97590214       6.94486020       6.67532739
Si      12.90720080      11.20317323       4.99617863
Si      11.69588190      11.64968131       6.67532739
Si      14.97590214       8.23585321       4.99617863
Si      12.90720080       7.70741073       9.54299279
18
Lattice="12.947684969821339 2.6204439830981627 2.0146963362413164 6.936861188050879 11.242296455973976 2.014696336241329 6.936861188050866 4.836112695172165 10.346992071653698" Properties=species:S:1:pos:R:3 unique_starting_index=39 config_type=initial n_minim_iter=15 stress="6.623120059609134e-06 -5.1782866964057334e-05 -3.981262451664083e-05 -5.1782866964057334e-05 4.4798811886642646e-05 -2.7755829849834328e-05 -3.981262451664083e-05 -2.7755829849834328e-05 5.956010355285108e-05" pbc="T T T"
Si      14.94540845      11.71367262       5.26670933
Si      12.76922787      11.22153247       9.96682577
Si      16.15983864       7.65239059       8.28336409
Si      14.94540845       8.10004553       9.96682577
Si      12.76922787      12.51584141       8.28336409
Si      16.15983864       9.97170874       5.26670933
Si       4.14022053       5.48415628       2.88088232
Si       5.36661728       2.43433646       4.55963859
Si       6.57765305       3.29499535       1.18083241
Si       4.14022053       4.19346504       4.55963859
Si       5.36661728       5.03209031       1.18083241
Si       6.57765305       1.98793275       2.88088232
Si      11.69671060       9.44515702       9.54307261
Si      14.97632027       6.94558929       6.67554385
Si      12.90771749      11.20342841       4.99682760
Si      11.69671060      11.64982147       6.67554385
Si      14.97632027       8.23624976       4.99682760
Si      12.90771749       7.70810348       9.54307261
18
Lattice="12.947704250426249 2.620616649993532 2.0148290890739418 6.937029867213765 11.24225482739616 2.014829089073954 6.937029867213749 4.836230291793882 10.346917725923346" Properties=species:S:1:pos:R:3 unique_starting_index=39 config_type=initial n_minim_iter=16 stress="2.9849752798376004e-06 1.1535072713464168e-05 8.868599697010647e-06 1.1535072713464168e-05 -5.518983783621881e-06 6.182846454675757e-06 8.868599697010647e-06 6.182846454675757e-06 -8.80718666274301e-06" pbc="T T T"
Si      14.94566965      11.71379195       5.26668039
Si      12.76932074      11.22177661       9.96694853
Si      16.16004094       7.65241499       8.28356849
Si      14.94566965       8.10004822       9.96694853
Si      12.76932074      12.51602278       8.28356849
Si      16.16004094       9.97191254       5.26668039
Si       4.14033785       5.48414340       2.88095306
Si       5.36671890       2.43442404       4.55960796
Si       6.57768154       3.29509315       1.18092492
Si       4.14033785       4.19353010       4.55960796
Si       5.36671890       5.03208322       1.18092492
Si       6.57768154       1.98804729       2.88095306
Si      11.69688717       9.44534360       9.54307372
Si      14.97642733       6.94573801       6.67572388
Si      12.90795362      11.20345547       4.99692506
Si      11.69688717      11.64987049       6.67572388
Si      14.97642733       8.23646196       4.99692506
Si      12.90795362       7.70820462       9.54307372
