8
Lattice="5.889610025707424 4.018273598442918e-08 -8.313636557846731e-16 -2.4686165700959903 5.347283280766124 -7.332556982439258e-08 -2.468616518681142 -2.1886246817144634 4.8788687972929" Properties=species:S:1:pos:R:3 unique_starting_index=63 config_type=initial n_minim_iter=1 pbc="T T T"
Si       1.27586379       0.18379489       4.28722738
Si      -0.43536847      -0.72151250       3.14163486
Si       0.36790471       4.41732420       0.62755127
Si       0.47259055       2.58086615       1.92244210
Si      -0.32348685       2.97486375       0.59164135
Si       1.38774541       3.88017114       1.73723388
Si       0.58447223      -1.25866556       4.25131747
Si       0.47978639       0.57779249       2.95642663
8
Lattice="5.93462221910101 0.0005153804975002761 0.0007959949263073988 -2.4870154415076695 5.388366667428011 -0.000796068822306642 -2.487015389692846 -2.206166237670501 4.916027539168807" Properties=species:S:1:pos:R:3 unique_starting_index=63 config_type=initial n_minim_iter=2 pbc="T T T"
Si       1.28805031       0.18601901       4.32166835
Si      -0.44044899      -0.72828278       3.16442534
Si       0.37099335       4.45365835       0.63070212
Si       0.47660792       2.59861078       1.93856795
Si      -0.32745892       2.99669680       0.59435913
Si       1.40104038       3.91099859       1.75160214
Si       0.58959804      -1.27094254       4.28532535
Si       0.48398347       0.58410503       2.97745952
8
Lattice="6.825734060908657 0.017632669124444236 0.027235374476003243 -2.8449818421255215 6.204597867275325 -0.02723545979944273 -2.844981782297939 -2.5643701916911783 5.649936488603257" Properties=species:S:1:pos:R:3 unique_starting_index=63 config_type=initial n_minim_iter=3 pbc="T T T"
Si       1.53956968       0.22788257       5.00742683
Si      -0.53849975      -0.86832984       3.61420377
Si       0.43840844       5.17999383       0.68701574
Si       0.56266143       2.94852695       2.25744291
Si      -0.40379924       3.42997778       0.64250959
Si       1.67427019       4.52619019       2.03573264
Si       0.69736200      -1.52213348       4.96292067
Si       0.57310901       0.70933339       3.39249350
8
Lattice="7.416323289769438 0.1893970984754128 0.29254295596214935 -2.936577947253959 6.812799153270992 -0.2925430519810083 -2.9365778799269 -3.055371901301807 6.096270719073257" Properties=species:S:1:pos:R:3 unique_starting_index=63 config_type=initial n_minim_iter=4 pbc="T T T"
Si       1.90384804       0.18858380       5.52708494
Si      -0.50781311      -1.08171501       3.90898586
Si       0.62677495       5.78275734       0.61297610
Si       0.76925991       3.19228250       2.43428093
Si      -0.36068057       3.75824055       0.56918570
Si       2.05098058       5.02853936       2.18728477
Si       0.91639252      -1.83593299       5.48329453
Si       0.77390755       0.75454185       3.66198971
8
Lattice="7.114412237800468 0.1556507626125989 0.24041831962648144 -2.8406715254401513 6.5245439602913455 -0.24041841122983773 -2.840671461209181 -2.8898314489996144 5.8546007091452" Properties=species:S:1:pos:R:3 unique_starting_index=63 config_type=initial n_minim_iter=5 pbc="T T T"
Si       1.79540733       0.19454576       5.29476232
Si      -0.50702711      -1.01880349       3.75032654
Si       0.57590929       5.53151126       0.60543795
Si       0.71247086       3.05860642       2.34463179
Si      -0.36233807       3.59581751       0.55983831
Si       1.94009637       4.80916676       2.10427409
Si       0.85715996      -1.74114799       5.24916268
Si       0.72059840       0.73175685       3.50996884
8
Lattice="6.985001252017627 0.11274923791655107 0.17415256346877017 -2.825380273890536 6.389067315202974 -0.17415265262608381 -2.825380211374696 -2.7739203539349955 5.7581139731598565" Properties=species:S:1:pos:R:3 unique_starting_index=63 config_type=initial n_minim_iter=6 pbc="T T T"
Si       1.71503792       0.20965061       5.18491492
Si      -0.52525562      -0.97082905       3.68208311
Si       0.52850868       5.40401177       0.62127809
Si       0.66127356       2.99779745       2.31345331
Si      -0.38079715       3.51824559       0.57319897
Si       1.85949639       4.69872525       2.07603079
Si       0.80573209      -1.67611557       5.13683580
Si       0.67296721       0.73009875       3.44466059
8
Lattice="6.9850669229194375 0.10653685005875686 0.16455690013604882 -2.831048138664342 6.3865230309884184 -0.1645569891732857 -2.831048076232698 -2.7641238903652825 5.7597200366195835" Properties=species:S:1:pos:R:3 unique_starting_index=63 config_type=initial n_minim_iter=7 pbc="T T T"
Si       1.71107540       0.21476178       5.18613088
Si      -0.53396551      -0.96783288       3.67986419
Si       0.52220727       5.40452556       0.62310361
Si       0.65490255       2.99305025       2.31861444
Si      -0.38810469       3.51417421       0.57358908
Si       1.85693622       4.69676887       2.07985577
Si       0.80076344      -1.67558957       5.13661635
Si       0.66806816       0.73588574       3.44110552
8
Lattice="6.982485533731154 0.09599587384190444 0.1482752929482516 -2.8395364976693496 6.379761115326306 -0.1482753817482198 -2.8395364354040753 -2.746500900111936 5.76021446100364" Properties=species:S:1:pos:R:3 unique_starting_index=63 config_type=initial n_minim_iter=8 pbc="T T T"
Si       1.70143453       0.22186110       5.18408917
Si      -0.54559240      -0.96132588       3.67619617
Si       0.51172073       5.40029801       0.62753930
Si       0.64412135       2.98649922       2.32425620
Si      -0.39802193       3.50739499       0.57612521
Si       1.84900501       4.69058197       2.08401821
Si       0.79169188      -1.67104192       5.13267509
Si       0.65929126       0.74275687       3.43595818
8
Lattice="6.963011270249598 -0.04164611667295767 -0.06432672583891562 -2.9563415498663326 6.3043877577635925 0.06432663995995784 -2.9563414896492297 -2.521672461480406 5.778460977622324" Properties=species:S:1:pos:R:3 unique_starting_index=63 config_type=initial n_minim_iter=9 pbc="T T T"
Si       1.56318556       0.30577628       5.15451526
Si      -0.68002220      -0.87079131       3.64620161
Si       0.37758587       5.33633648       0.69786650
Si       0.50557743       2.92470872       2.38871603
Si      -0.51285733       3.43529290       0.62394564
Si       1.73035044       4.61186049       2.13225929
Si       0.67274236      -1.59526730       5.08059440
Si       0.54475081       0.81636046       3.38974487
8
Lattice="7.034927782910992 -0.3617014146389974 -0.5586846059202905 -3.27706916872274 6.235531619479713 0.5586845253743485 -3.277069112245071 -2.042437052482016 5.9179755181341385" Properties=species:S:1:pos:R:3 unique_starting_index=63 config_type=initial n_minim_iter=10 pbc="T T T"
Si       1.22364278       0.47578988       5.13221441
Si      -0.94663403      -0.65300968       3.66677837
Si       0.08090887       5.21897923       0.90499277
Si       0.19609981       2.88176965       2.53470902
Si      -0.74285327       3.35560327       0.78576103
Si       1.42742354       4.48440283       2.25119707
Si       0.39988063      -1.38758608       5.01298268
Si       0.28468969       0.94962350       3.38326642
8
Lattice="7.311762652689083 -0.24840258596178819 -0.3836830730697746 -3.290237823166748 6.534363937455528 0.3836829868724137 -3.290237762726386 -2.3244197396661823 6.119003021171924" Properties=species:S:1:pos:R:3 unique_starting_index=63 config_type=initial n_minim_iter=11 pbc="T T T"
Si       1.42574097       0.43820620       5.38245030
Si      -0.90278333      -0.77277496       3.81007941
Si       0.19974077       5.51594836       0.85437137
Si       0.32321680       3.00826655       2.60283830
Si      -0.69445389       3.52333541       0.73655265
Si       1.63407040       4.73431657       2.30892353
Si       0.53154630      -1.55440675       5.26463157
Si       0.40807027       0.95327506       3.51616464
8
Lattice="7.181547026295844 -0.32407523112102976 -0.5005671496098765 -3.3043627995765203 6.384420805233433 0.5005670665063101 -3.3043627413054835 -2.1564033340855255 6.030034946184835" Properties=species:S:1:pos:R:3 unique_starting_index=63 config_type=initial n_minim_iter=12 pbc="T T T"
Si       1.30426180       0.46584466       5.25721523
Si      -0.93856005      -0.69980695       3.74222493
Si       0.12372960       5.36128265       0.89317489
Si       0.24197209       2.94557920       2.57679740
Si      -0.73144031       3.43809758       0.77281964
Si       1.51138154       4.60374919       2.28780994
Si       0.44909189      -1.45734041       5.13685998
Si       0.33084940       0.95836304       3.45323748
8
Lattice="7.19494534322246 -0.3373437689697778 -0.5210617526347475 -3.3220254183379936 6.391023902071291 0.5210616696225824 -3.322025360131046 -2.1404066541938906 6.044447991488458" Properties=species:S:1:pos:R:3 unique_starting_index=63 config_type=initial n_minim_iter=13 pbc="T T T"
Si       1.29352353       0.47310047       5.26382308
Si      -0.95045314      -0.69258405       3.74768546
Si       0.11264100       5.36456601       0.90200005
Si       0.23042933       2.94738097       2.58612218
Si      -0.74262896       3.44017301       0.78062483
Si       1.50134771       4.60585753       2.29676245
Si       0.43825357      -1.45129253       5.14244787
Si       0.32046524       0.96589251       3.45832574
8
Lattice="7.227738859258743 -0.3585831457413484 -0.5538681252718503 -3.3550543589584114 6.411895291599268 0.5538680422647319 -3.3550543007550018 -2.1190166615112567 6.076918612048701" Properties=species:S:1:pos:R:3 unique_starting_index=63 config_type=initial n_minim_iter=14 pbc="T T T"
Si       1.27901377       0.48518619       5.28288154
Si      -0.97061172      -0.68249025       3.76231713
Si       0.09558642       5.37863641       0.91719833
Si       0.21281556       2.95497148       2.60494977
Si      -0.76138356       3.44910929       0.79403699
Si       1.48824193       4.61678573       2.31460141
Si       0.42204379      -1.44434093       5.15972020
Si       0.30481464       0.97932400       3.47196877
8
Lattice="7.28980401600857 -0.3973263354677112 -0.61371091319758 -3.4162444684387134 6.452006249411156 0.6137108301717065 -3.4162444102221516 -2.0808332945502497 6.1380093534928575" Properties=species:S:1:pos:R:3 unique_starting_index=63 config_type=initial n_minim_iter=15 pbc="T T T"
Si       1.25159043       0.50678141       5.31835908
Si      -1.00627302      -0.66372626       3.79129114
Si       0.06448530       5.40452022       0.94617759
Si       0.18083205       2.97137447       2.63917411
Si      -0.79427529       3.46706521       0.81965020
Si       1.46358816       4.63757288       2.34671814
Si       0.39282984      -1.43067360       5.19183169
Si       0.27648309       1.00247215       3.49883517
8
Lattice="7.278274993536511 -0.4071625981043061 -0.6289040186687684 -3.4203426251969176 6.437415995032817 0.6289039359778472 -3.420342567215219 -2.0609993426503546 6.130915670601099" Properties=species:S:1:pos:R:3 unique_starting_index=63 config_type=initial n_minim_iter=16 pbc="T T T"
Si       1.23685364       0.51037992       5.30579918
Si      -1.01104267      -0.65484527       3.78539765
Si       0.05504127       5.38820160       0.95186843
Si       0.17076965       2.96574838       2.63731667
Si      -0.79926384       3.45887414       0.82511641
Si       1.44863248       4.62409932       2.34551795
Si       0.38254854      -1.41894754       5.17904717
Si       0.26682016       1.00350567       3.49359893
8
Lattice="7.2852851912934975 -0.40796239201123696 -0.6301393815760028 -3.4240070809056378 6.443445448359746 0.6301392988133679 -3.424007022873654 -2.062340030327517 6.136922582093525" Properties=species:S:1:pos:R:3 unique_starting_index=63 config_type=initial n_minim_iter=17 pbc="T T T"
Si       1.23775568       0.51110369       5.31089947
Si      -1.01245596      -0.65524196       3.78888031
Si       0.05476223       5.39331448       0.95293193
Si       0.17053744       2.96833272       2.64006457
Si      -0.80048459       3.46203934       0.82602304
Si       1.44972706       4.62838499       2.34804220
Si       0.38250886      -1.42017146       5.18399058
Si       0.26673366       1.00481030       3.49685794
8
Lattice="7.315686938600994 -0.4133397846934129 -0.6384453104641787 -3.441632135723036 6.468793821850764 0.6384452274276885 -3.44163207749903 -2.0651366912890956 6.163450061864907" Properties=species:S:1:pos:R:3 unique_starting_index=63 config_type=initial n_minim_iter=18 pbc="T T T"
Si       1.23949630       0.51512400       5.33239808
Si      -1.01992601      -0.65559680       3.80389061
Si       0.05184169       5.41426637       0.95875184
Si       0.16772854       2.97919134       2.65253201
Si      -0.80707357       3.47519335       0.83105191
Si       1.45234874       4.64591414       2.35955938
Si       0.38058104      -1.42394903       5.20469815
Si       0.26469419       1.01112600       3.51091798
8
Lattice="7.306018081405122 -0.4203354921001707 -0.6492508902103631 -3.4439309851958657 6.457083057266298 0.6492508074303893 -3.4439309271517256 -2.0504844893413208 6.157187830345534" Properties=species:S:1:pos:R:3 unique_starting_index=63 config_type=initial n_minim_iter=19 pbc="T T T"
Si       1.22861469       0.51758719       5.32231479
Si      -1.02310229      -0.64906627       3.79897156
Si       0.04504432       5.40144525       0.96269696
Si       0.16046802       2.97464321       2.65065237
Si      -0.81045852       3.46867589       0.83487296
Si       1.44125847       4.63532934       2.35821620
Si       0.37311186      -1.41518218       5.19449080
Si       0.25768815       1.01161986       3.50653538
8
Lattice="7.308414075960829 -0.42230187712215 -0.6522881714041394 -3.4467205772696237 6.458434218239837 0.6522880886326012 -3.4467205192313988 -2.0482662952358006 6.159663780255157" Properties=species:S:1:pos:R:3 unique_starting_index=63 config_type=initial n_minim_iter=20 pbc="T T T"
Si       1.22691091       0.51855553       5.32342197
Si      -1.02465689      -0.64795002       3.80013396
Si       0.04345100       5.40198844       0.96419118
Si       0.15880296       2.97531759       2.65198906
Si      -0.81193793       3.46931051       0.83624173
Si       1.43962988       4.63581607       2.35952975
Si       0.37152198      -1.41412239       5.19547252
Si       0.25617002       1.01254846       3.50767465
8
Lattice="7.312699297620346 -0.4252296683239096 -0.6568104420031738 -3.4511749125819575 6.461097671427863 0.6568103592352609 -3.4511748545462746 -2.045230311395681 6.1639448684799385" Properties=species:S:1:pos:R:3 unique_starting_index=63 config_type=initial n_minim_iter=21 pbc="T T T"
Si       1.22456304       0.52003403       5.32562215
Si      -1.02706187      -0.64638782       3.80222216
Si       0.04112454       5.40337704       0.96647123
Si       0.15637657       2.97659715       2.65423857
Si      -0.81421350       3.47060366       0.83832264
Si       1.43741141       4.63702551       2.36172264
Si       0.36922500      -1.41273935       5.19747356
Si       0.25397297       1.01404054       3.50970623
8
Lattice="7.34010870786652 -0.4453200129659556 -0.68784201788298 -3.4809038905518785 6.4775623482742954 0.687841935164785 -3.480903832551059 -2.0236559934155487 6.191668379980948" Properties=species:S:1:pos:R:3 unique_starting_index=63 config_type=initial n_minim_iter=22 pbc="T T T"
Si       1.20790473       0.53004400       5.33915417
Si      -1.04326589      -0.63537369       3.81556378
Si       0.02505402       5.41125058       0.98198122
Si       0.13958476       2.98463807       2.66891028
Si      -0.82960374       3.47854235       0.85251414
Si       1.42156688       4.64396003       2.37610452
Si       0.35324697      -1.40266423       5.20968708
Si       0.23871623       1.02394827       3.52275803
8
Lattice="7.372532173604136 -0.45816371661155586 -0.7076804215794927 -3.506155142402143 6.501616789441542 0.7076803387075672 -3.5061550842935287 -2.0154008060158493 6.221735476306243" Properties=species:S:1:pos:R:3 unique_starting_index=63 config_type=initial n_minim_iter=23 pbc="T T T"
Si       1.20110601       0.53708408       5.35918053
Si      -1.05535951      -0.63032715       3.83152256
Si       0.01581253       5.42820397       0.99311756
Si       0.12993391       2.99557056       2.68353039
Si      -0.84088406       3.49096818       0.86255487
Si       1.41558147       4.65837942       2.39021285
Si       0.34440942      -1.40015170       5.22861784
Si       0.23028804       1.03248171       3.53820501
8
Lattice="7.3658987669825935 -0.46288410634963034 -0.7149715423731529 -3.5076604921159853 6.493615659372529 0.714971459675673 -3.5076604341296918 -2.0054735420471834 6.2174194645962295" Properties=species:S:1:pos:R:3 unique_starting_index=63 config_type=initial n_minim_iter=24 pbc="T T T"
Si       1.19372573       0.53871083       5.35226953
Si      -1.05745232      -0.62589338       3.82814497
Si       0.01124215       5.41943487       0.99578051
Si       0.12503121       2.99247178       2.68218599
Si      -0.84314789       3.48654718       0.86514986
Si       1.40803016       4.65115139       2.38927442
Si       0.33933570      -1.39417686       5.22163888
Si       0.22554664       1.03278623       3.53523340
8
Lattice="7.368161678714951 -0.4637509931984468 -0.7163105370860972 -3.5093960486090823 6.4953068441662865 0.716310454377315 -3.509395990614863 -2.0049440375074723 6.219510549909552" Properties=species:S:1:pos:R:3 unique_starting_index=63 config_type=initial n_minim_iter=25 pbc="T T T"
Si       1.19328381       0.53917887       5.35367487
Si      -1.05826867      -0.62555641       3.82925625
Si       0.01063198       5.42063318       0.99654280
Si       0.12438309       2.99324016       2.68318822
Si      -0.84391416       3.48743295       0.86583561
Si       1.40763832       4.65216822       2.39025423
Si       0.33873766      -1.39402136       5.22296767
Si       0.22498655       1.03337165       3.53632226
8
Lattice="7.3695871367818135 -0.4648019953194992 -0.7179339165078351 -3.510947749884578 6.496160518168282 0.7179338338017571 -3.5109476918922558 -2.003812269667098 6.220953886878869" Properties=species:S:1:pos:R:3 unique_starting_index=63 config_type=initial n_minim_iter=26 pbc="T T T"
Si       1.19240184       0.53968118       5.35436549
Si      -1.05909380      -0.62496659       3.82994774
Si       0.00980625       5.42102174       0.99736398
Si       0.12350174       2.99366564       2.68392920
Si      -0.84471014       3.48786507       0.86658832
Si       1.40678550       4.65251284       2.39100607
Si       0.33788545      -1.39347548       5.22358983
Si       0.22418996       1.03388061       3.53702461
8
Lattice="7.3747334540494816 -0.4682409807164185 -0.7232457784142204 -3.516227133884926 6.499391509738418 0.7232456957109955 -3.516227075894604 -2.0002881531134302 6.226075974926153" Properties=species:S:1:pos:R:3 unique_starting_index=63 config_type=initial n_minim_iter=27 pbc="T T T"
Si       1.18964278       0.54134622       5.35699557
Si      -1.06185241      -0.62310163       3.83244884
Si       0.00713808       5.42268178       1.00008927
Si       0.12065224       2.99524247       2.68652487
Si      -0.84736354       3.48951616       0.86908033
Si       1.40413166       4.65396400       2.39362706
Si       0.33514117      -1.39181941       5.22598664
Si       0.22162701       1.03561991       3.53955103
8
Lattice="7.466270582314729 -0.5304414946239359 -0.8193207837408127 -3.611067680626792 6.556428519315588 0.8193207011083923 -3.611067622686117 -1.9359742346721034 6.317439791664078" Properties=species:S:1:pos:R:3 unique_starting_index=63 config_type=initial n_minim_iter=28 pbc="T T T"
Si       1.13936283       0.57125645       5.40332442
Si      -1.11144465      -0.58911734       3.87683602
Si      -0.04109269       5.45139914       1.04926410
Si       0.06901081       3.02314273       2.73277725
Si      -0.89522755       3.51875634       0.91411530
Si       1.35557994       4.67913013       2.44060370
Si       0.28522798      -1.36138635       5.26817562
Si       0.17512447       1.06687006       3.58466247
8
Lattice="7.505830312960426 -0.5182879194677938 -0.8005483542727057 -3.6166146014294194 6.597439655852804 0.8005482709112561 -3.61661454297756 -1.9698879431685092 6.347174919665692" Properties=species:S:1:pos:R:3 unique_starting_index=63 config_type=initial n_minim_iter=29 pbc="T T T"
Si       1.16458993       0.56654722       5.43869433
Si      -1.10828550      -0.60256858       3.89553371
Si      -0.02624322       5.49223739       1.04464407
Si       0.08254759       3.03906886       2.74295732
Si      -0.89198875       3.54271657       0.90848051
Si       1.38088667       4.71183237       2.45164113
Si       0.29884439      -1.38297359       5.30253078
Si       0.19005358       1.07019493       3.60421752
8
Lattice="7.4717947612191935 -0.5321947544523243 -0.8220288714831662 -3.6149749438275647 6.560709146262889 0.8220287888160915 -3.6149748858625887 -1.9352554174985432 6.3224538527083265" Properties=species:S:1:pos:R:3 unique_starting_index=63 config_type=initial n_minim_iter=30 pbc="T T T"
Si       1.13915453       0.57065024       5.40726007
Si      -1.11272917      -0.58755608       3.87827931
Si      -0.04062961       5.45480863       1.05127933
Si       0.06705491       3.02425010       2.73383499
Si      -0.89730960       3.52260873       0.91519371
Si       1.35457411       4.68081505       2.44417447
Si       0.28247455      -1.36154966       5.27117445
Si       0.17479002       1.06900887       3.58861879
