12
Lattice="4.795864202744768 -4.600127587938109e-18 -1.5823454553803081e-18 7.675213954024692e-18 8.001796286483652 -4.510859081452282e-15 2.2827229336825704e-18 3.900232928734511e-15 6.918608806445201" Properties=species:S:1:pos:R:3 unique_starting_index=60 config_type=initial n_minim_iter=1 energy=-1948.8300249536196 free_energy=-1948.8300249536196 pbc="T T T"
Si       2.66675174       2.95512453      -0.10144438
Si       2.66675174       5.04667175       7.02005318
Si       0.26881964       1.04577361       3.35786003
Si       0.26881964       6.95602268       3.56074878
Si       3.32638166       5.73435558       3.43816304
Si       3.32638166       2.26744070       3.48044577
Si       0.92844955       6.26833885       6.89746744
Si       0.92844955       1.73345744       0.02114136
Si       1.00098615       3.73427325       5.75807863
Si       1.00098615       4.26752304       1.16053017
Si       3.39891825       0.26662489       2.29877423
Si       3.39891825       7.73517139       4.61983458
12
Lattice="4.787883755650435 -4.590766791309768e-18 -1.5804979795160406e-18 7.67313163900986e-18 7.996369649458653 -4.501973820806193e-15 2.281688315284709e-18 3.905664505317892e-15 6.919066023595425" Properties=species:S:1:pos:R:3 unique_starting_index=60 config_type=initial n_minim_iter=2 stress="-0.005199460783000998 3.963926607768303e-15 2.61942707745315e-16 3.963926607768303e-15 0.0005932112502007275 -2.2372002783111866e-15 2.61942707745315e-16 -2.2372002783111866e-15 -0.011902998109090745" pbc="T T T"
Si       2.66193139       2.95292143      -0.10139650
Si       2.66193139       5.04344822       7.02046253
Si       0.26798951       1.04526339       3.35813651
Si       0.26798951       6.95110626       3.56092951
Si       3.32109621       5.73065055       3.43845099
Si       3.32109621       2.26571910       3.48061503
Si       0.92715433       6.26390392       6.89798400
Si       0.92715433       1.73246573       0.02108202
Si       0.99945354       3.73183303       5.75859097
Si       0.99945354       4.26453661       1.16047505
Si       3.39339542       0.26635179       2.29905796
Si       3.39339542       7.73001786       4.62000806
12
Lattice="4.789281734030856 -4.610033445662569e-18 -1.6053609041791038e-18 7.633965502811376e-18 7.98658453571858 -4.549309120347075e-15 2.2586243970225035e-18 3.881440838147443e-15 6.960624418516506" Properties=species:S:1:pos:R:3 unique_starting_index=60 config_type=initial n_minim_iter=3 stress="-0.008470126207722061 8.7735688006013545e-16 2.5470037183494804e-15 8.7735688006013545e-16 -0.007926221807313309 -4.550871820597095e-15 2.5470037183494804e-15 -4.550871820597095e-15 0.006915521653975513" pbc="T T T"
Si       2.66078178       2.94689748      -0.10035164
Si       2.66078178       5.03968706       7.06097606
Si       0.26614091       1.04639479       3.37996057
Si       0.26614091       6.94018975       3.58066385
Si       3.32394657       5.72507564       3.45977096
Si       3.32394657       2.26150890       3.50085346
Si       0.92930570       6.25480117       6.94008317
Si       0.92930570       1.73178337       0.02054125
Si       0.99979155       3.72923742       5.79380834
Si       0.99979155       4.25734711       1.16681608
Si       3.39443242       0.26405485       2.31349613
Si       3.39443242       7.72252969       4.64712828
12
Lattice="4.813607497168657 -4.592012902478466e-18 -1.6127074051654283e-18 7.749421009156528e-18 8.035031487048558 -4.589939427083391e-15 2.2624378314492645e-18 3.874931120453786e-15 6.969810411281945" Properties=species:S:1:pos:R:3 unique_starting_index=60 config_type=initial n_minim_iter=4 stress="-0.008254900588149325 5.008003019283801e-15 2.4764080719534124e-15 5.008003019283801e-15 0.022801514220320507 -3.3442628714917173e-15 2.4764080719534124e-15 -3.3442628714917173e-15 0.0042823272630554314" pbc="T T T"
Si       2.66586476       2.96164798      -0.09716594
Si       2.66586476       5.07338351       7.06697635
Si       0.25906101       1.05586777       3.38773926
Si       0.25906101       6.97916372       3.58207115
Si       3.34257171       5.76155788       3.46711631
Si       3.34257171       2.27347361       3.50269411
Si       0.93576796       6.29098935       6.95202151
Si       0.93576796       1.74404213       0.01778890
Si       1.01155927       3.75857974       5.80941948
Si       1.01155927       4.27645175       1.16039093
Si       3.41836302       0.25893601       2.32451427
Si       3.41836302       7.77609548       4.64529614
12
Lattice="4.934502936984109 -4.792833734885046e-18 -1.6435865356008224e-18 7.536596634248316e-18 7.961308075291799 -4.568832195298689e-15 2.28399184195621e-18 3.8745976285297044e-15 6.99927305852815" Properties=species:S:1:pos:R:3 unique_starting_index=60 config_type=initial n_minim_iter=5 stress="-0.03402017977710546 9.397849169116524e-15 2.1773681917915923e-15 9.397849169116524e-15 -0.016929973231093874 -7.308159651178668e-15 2.1773681917915923e-15 -7.308159651178668e-15 -0.021239651449798936" pbc="T T T"
Si       2.70602131       2.93299411      -0.08557375
Si       2.70602131       5.02831397       7.08484680
Si       0.23876984       1.04765993       3.41406278
Si       0.23876984       6.91364814       3.58521027
Si       3.43103616       5.71335260       3.49130703
Si       3.43103616       2.24795547       3.50796603
Si       0.96378469       6.22860951       6.99094356
Si       0.96378469       1.73269856       0.00832950
Si       1.05924793       3.74587922       5.85979972
Si       1.05924793       4.21542886       1.13947334
Si       3.52649939       0.23477482       2.36016319
Si       3.52649939       7.72653325       4.63910987
12
Lattice="4.926126007134277 -4.7657864342483266e-18 -1.6339887676873574e-18 7.593468885306425e-18 7.987322353870104 -4.584255372106675e-15 2.328991161229732e-18 3.9338946774048074e-15 7.103756202912828" Properties=species:S:1:pos:R:3 unique_starting_index=60 config_type=initial n_minim_iter=6 stress="-0.007601436232186381 6.419836840810136e-15 3.286181911414228e-15 6.419836840810136e-15 -0.002634813679192542 -2.3189860749178517e-15 3.286181911414228e-15 -2.3189860749178517e-15 -0.004780337406617618" pbc="T T T"
Si       2.69837340       2.94580217      -0.08365952
Si       2.69837340       5.04152018       7.18741573
Si       0.23531039       1.04785900       3.46821858
Si       0.23531039       6.93946335       3.63553762
Si       3.42209371       5.73026412       3.54804150
Si       3.42209371       2.25705823       3.55571470
Si       0.95903071       6.25071941       7.09991961
Si       0.95903071       1.73660294       0.00383660
Si       1.06362166       3.76119610       5.94917596
Si       1.06362166       4.22612625       1.15458024
Si       3.52668466       0.23246508       2.39729786
Si       3.52668466       7.75485728       4.70645834
12
Lattice="4.9161578273678845 -4.746660902848982e-18 -1.6379704176576865e-18 7.620448080018773e-18 7.9986448533239605 -4.57801380761444e-15 2.321724505501184e-18 3.949847608631188e-15 7.1127128342208055" Properties=species:S:1:pos:R:3 unique_starting_index=60 config_type=initial n_minim_iter=7 stress="0.03599878460054932 3.551883388764144e-15 1.0032443089810569e-14 3.551883388764144e-15 0.007910842318999568 -2.6258056120557455e-15 1.0032443089810569e-14 -2.6258056120557455e-15 0.015403989839539462" pbc="T T T"
Si       2.69237746       2.94892542      -0.07376857
Si       2.69237746       5.04971943       7.18648141
Si       0.23429855       1.05039700       3.48258784
Si       0.23429855       6.94824785       3.63012499
Si       3.41245715       5.73664397       3.56238527
Si       3.41245715       2.26200088       3.55032757
Si       0.95437823       6.26132331       7.11874168
Si       0.95437823       1.73732154      -0.00602885
Si       1.06471692       3.77490741       5.95551199
Si       1.06471692       4.22373744       1.15720084
Si       3.52279584       0.22441501       2.39915557
Si       3.52279584       7.77422984       4.71355726
12
Lattice="4.887550112467731 -4.6706609753925594e-18 -1.6588612868867565e-18 7.7455110591712e-18 8.04402007696882 -4.5752765703628124e-15 2.278292052220966e-18 3.97370620257563e-15 7.1120761914567465" Properties=species:S:1:pos:R:3 unique_starting_index=60 config_type=initial n_minim_iter=8 stress="0.003549990535839622 3.444045480298859e-15 1.4872844777615248e-14 3.444045480298859e-15 0.010969134694418159 -2.22528855134136e-15 1.4872844777615248e-14 -2.22528855134136e-15 0.005136368971547602" pbc="T T T"
Si       2.67076709       2.96425278      -0.05527568
Si       2.67076709       5.07976730       7.16735187
Si       0.22699203       1.05775726       3.50076242
Si       0.22699203       6.98626282       3.61131377
Si       3.38437738       5.76353415       3.59156560
Si       3.38437738       2.28048593       3.52051059
Si       0.94060232       6.30249596       7.14760370
Si       0.94060232       1.74152411      -0.03552751
Si       1.07268658       3.81053846       5.94900283
Si       1.07268658       4.23348162       1.16307336
Si       3.51646164       0.21147158       2.39296474
Si       3.51646164       7.83254849       4.71911146
12
Lattice="4.862567095073483 -4.640258188198636e-18 -1.677246058491921e-18 7.75905080270804e-18 8.046711372708335 -4.563050591760056e-15 2.2210022715050378e-18 3.9537091890084904e-15 7.056022829012824" Properties=species:S:1:pos:R:3 unique_starting_index=60 config_type=initial n_minim_iter=9 stress="-0.01143600627934282 7.937237332541296e-15 1.680520400980682e-14 7.937237332541296e-15 -0.007057876231203618 -1.5828832936576997e-15 1.680520400980682e-14 -1.5828832936576997e-15 -0.010856677190272631" pbc="T T T"
Si       2.65383413       2.96653639      -0.04219833
Si       2.65383413       5.08017498       7.09822115
Si       0.22255059       1.05681930       3.48581309
Si       0.22255059       6.98989208       3.57020974
Si       3.35921280       5.75657503       3.60136101
Si       3.35921280       2.29013635       3.45466182
Si       0.92792925       6.31349203       7.12937242
Si       0.92792925       1.73321934      -0.07334960
Si       1.07834976       3.81730390       5.88245303
Si       1.07834976       4.22940747       1.17356980
Si       3.50963330       0.20605178       2.35444161
Si       3.50963330       7.84065959       4.70158122
12
Lattice="4.862141272228117 -4.6227317835440686e-18 -1.6853090958669887e-18 7.803681786355082e-18 8.063383755849893 -4.5522351133385115e-15 2.2036647302143558e-18 3.962238859302354e-15 7.040334206933026" Properties=species:S:1:pos:R:3 unique_starting_index=60 config_type=initial n_minim_iter=10 stress="-0.0028500850327713963 6.664109695060769e-15 1.8659748482832216e-14 6.664109695060769e-15 0.014877089983544332 -1.7435819656881104e-15 1.8659748482832216e-14 -1.7435819656881104e-15 -0.0027002507522551553" pbc="T T T"
Si       2.64810410       2.97236947      -0.03615911
Si       2.64810410       5.09101429       7.07649331
Si       0.21703346       1.05932241       3.48400800
Si       0.21703346       7.00406135       3.55632621
Si       3.35880094       5.76427789       3.61526650
Si       3.35880094       2.29910587       3.42506771
Si       0.92773031       6.33079775       7.13543361
Si       0.92773031       1.73258601      -0.09509940
Si       1.08387064       3.82836488       5.85900365
Si       1.08387064       4.23501888       1.18133056
Si       3.51494128       0.20332700       2.33883655
Si       3.51494128       7.86005675       4.70149766
12
Lattice="4.910038313527518 -4.673048949999639e-18 -1.7072216852729622e-18 7.78822995101145e-18 8.055292510907396 -4.567990515868995e-15 2.1819816329203214e-18 3.926598150597431e-15 7.008329306163959" Properties=species:S:1:pos:R:3 unique_starting_index=60 config_type=initial n_minim_iter=11 stress="-0.013429473870142355 6.632692534101121e-15 2.0284984666792596e-14 6.632692534101121e-15 -0.018497649079422345 -9.578428093998274e-16 2.0284984666792596e-14 -9.578428093998274e-16 0.006064540814702835" pbc="T T T"
Si       2.65710653       2.97006179      -0.03415993
Si       2.65710653       5.08523072       7.04248924
Si       0.20208737       1.05758447       3.47000472
Si       0.20208737       6.99770804       3.53832459
Si       3.40135114       5.75261242       3.63780723
Si       3.40135114       2.30268009       3.37052207
Si       0.94633199       6.33032634       7.14197189
Si       0.94633199       1.72496617      -0.13364258
Si       1.10216937       3.82643075       5.81488409
Si       1.10216937       4.22886176       1.19344522
Si       3.55718853       0.20121550       2.31071943
Si       3.55718853       7.85407701       4.69760987
12
Lattice="5.069593207205016 -4.699975297203811e-18 -1.783593926999957e-18 8.074071927851574e-18 8.134156389835317 -4.594555953462729e-15 2.0972115536675618e-18 3.868884886997269e-15 6.8794770847809605" Properties=species:S:1:pos:R:3 unique_starting_index=60 config_type=initial n_minim_iter=12 stress="0.004155556198438064 1.3765075038747951e-14 2.483137665847546e-14 1.3765075038747951e-14 0.016885273648609513 -6.8529903335943864e-15 2.483137665847546e-14 -6.8529903335943864e-15 -0.0086044612150062" pbc="T T T"
Si       2.68629105       3.00618648      -0.02145367
Si       2.68629105       5.12796991       6.90093075
Si       0.15149445       1.06089171       3.41828487
Si       0.15149445       7.07326468       3.46119221
Si       3.54353744       5.79082078       3.68510349
Si       3.54353744       2.34333561       3.19437359
Si       1.00874083       6.41041380       7.12484204
Si       1.00874083       1.72374259      -0.24536495
Si       1.16348780       3.87871044       5.67281912
Si       1.16348780       4.25544595       1.20665797
Si       3.69828440       0.18836776       2.23308057
Si       3.69828440       7.94578863       4.64639651
12
Lattice="5.204811796632558 -4.651684952183909e-18 -1.8669454345193385e-18 8.453276393336431e-18 8.218322212960107 -4.644732373007585e-15 2.0127596094355984e-18 3.828530985599165e-15 6.812451690854998" Properties=species:S:1:pos:R:3 unique_starting_index=60 config_type=initial n_minim_iter=13 stress="0.004165548021439721 4.838247965497168e-15 3.600397139455724e-16 4.838247965497168e-15 0.023969475589354406 -1.790673709570572e-15 3.600397139455724e-16 -1.790673709570572e-15 -0.01748836957974554" pbc="T T T"
Si       2.71239003       3.04737809      -0.02146611
Si       2.71239003       5.17094412       6.83391780
Si       0.10998413       1.06178302       3.38475973
Si       0.10998413       7.15653920       3.42769196
Si       3.67316123       5.83863591       3.72030426
Si       3.67316123       2.37968630       3.09214743
Si       1.07075533       6.48884741       7.12653010
Si       1.07075533       1.72947480      -0.31407841
Si       1.20496306       3.92867357       5.59672865
Si       1.20496306       4.28964864       1.21572304
Si       3.80736896       0.18048754       2.19050280
Si       3.80736896       8.03783467       4.62194889
12
Lattice="5.29711339560532 -4.55697267370765e-18 -1.936121097450275e-18 8.845750913162517e-18 8.306971147870966 -4.698019290346471e-15 1.9400694110576112e-18 3.8057317289643086e-15 6.77741833740851" Properties=species:S:1:pos:R:3 unique_starting_index=60 config_type=initial n_minim_iter=14 stress="0.0022089310896915007 5.185233436813087e-15 -5.9564012628071505e-18 5.185233436813087e-15 0.020913799517494606 -2.365063576413364e-15 -5.9564012628071505e-18 -2.365063576413364e-15 -0.01609124312135921" pbc="T T T"
Si       2.73465714       3.09204040      -0.03486034
Si       2.73465714       5.21493075       6.81227868
Si       0.08610044       1.06144517       3.35384883
Si       0.08610044       7.24552597       3.42356951
Si       3.77369194       5.89626445       3.72407731
Si       3.77369194       2.41070669       3.05334103
Si       1.12513524       6.56419227       7.11278648
Si       1.12513524       1.74277888      -0.33536814
Si       1.21677464       3.97340573       5.56250768
Si       1.21677464       4.33356542       1.21491066
Si       3.86533133       0.18007984       2.17379851
Si       3.86533133       8.12689131       4.60361983
12
Lattice="5.281706205088692 -4.3468818911182145e-18 -1.9654603630260594e-18 9.333113687980764e-18 8.485693242581956 -4.782347496713987e-15 1.8962237400966347e-18 3.82703188584841e-15 6.790678286515733" Properties=species:S:1:pos:R:3 unique_starting_index=60 config_type=initial n_minim_iter=15 stress="0.06865142611342451 1.6327721491565993e-14 1.5061921813823947e-14 1.6327721491565993e-14 0.0311978491553873 -9.415433856541775e-15 1.5061921813823947e-14 -9.415433856541775e-15 0.02238120927388226" pbc="T T T"
Si       2.72486791       3.18564539      -0.05999445
Si       2.72486791       5.30004785       6.85067274
Si       0.08401480       1.05720123       3.33534469
Si       0.08401480       7.42849201       3.45533360
Si       3.80334510       6.01513826       3.71811057
Si       3.80334510       2.47055498       3.07256771
Si       1.16249200       6.71340160       7.11344971
Si       1.16249200       1.77229164      -0.32277143
Si       1.17444141       4.06197959       5.57746635
Si       1.17444141       4.42371365       1.21321193
Si       3.81529451       0.18086703       2.18212721
Si       3.81529451       8.30482621       4.60855108
12
Lattice="5.2312406846410715 -4.3964173947478745e-18 -1.9817059660397308e-18 9.153409538844106e-18 8.47125975250039 -4.761850913079456e-15 1.853776518460026e-18 3.8400359461443705e-15 6.794797050562433" Properties=species:S:1:pos:R:3 unique_starting_index=60 config_type=initial n_minim_iter=16 stress="0.016150582077509457 2.018742970720171e-14 1.9190446767249316e-14 2.018742970720171e-14 -0.0013732077254004376 -8.183445396539705e-15 1.9190446767249316e-14 -8.183445396539705e-15 0.013645546910875073" pbc="T T T"
Si       2.71758080       3.17916256      -0.07351817
Si       2.71758080       5.29209719       6.86831522
Si       0.10196046       1.05646731       3.32388035
Si       0.10196046       7.41479244       3.47091670
Si       3.76550222       6.00796501       3.68120748
Si       3.76550222       2.46329475       3.11358957
Si       1.14988187       6.69892462       7.07860600
Si       1.14988187       1.77233513      -0.28380895
Si       1.14597426       4.04804280       5.59277434
Si       1.14597426       4.42321695       1.20202271
Si       3.76159460       0.18758708       2.19537581
Si       3.76159460       8.28367268       4.59942124
12
Lattice="5.202069795863897 -4.485317261179991e-18 -2.0083913411902523e-18 9.0229283953147e-18 8.5409340372158 -4.804372736421386e-15 1.795834225614226e-18 3.825979889878368e-15 6.77457292964774" Properties=species:S:1:pos:R:3 unique_starting_index=60 config_type=initial n_minim_iter=17 stress="0.00461865153121229 1.6950383764516787e-14 2.7321635873986554e-14 1.6950383764516787e-14 0.006147312304299379 -8.563530842362883e-15 2.7321635873986554e-14 -8.563530842362883e-15 -0.0035689261898531168" pbc="T T T"
Si       2.69613103       3.21527111      -0.07847583
Si       2.69613103       5.32566293       6.85304876
Si       0.09509613       1.05519591       3.30881063
Si       0.09509613       7.48573813       3.46576230
Si       3.75856357       6.04153337       3.68883169
Si       3.75856357       2.49940067       3.08574124
Si       1.15752867       6.76986768       7.07611815
Si       1.15752867       1.77106635      -0.30154522
Si       1.13182088       4.09197674       5.56978214
Si       1.13182088       4.44895730       1.20479079
Si       3.73285578       0.17849028       2.18249568
Si       3.73285578       8.36244376       4.59207725
12
Lattice="5.235610854377345 -4.839811773443356e-18 -2.045266543065459e-18 8.454940665307145e-18 8.512488650623766 -4.7634348106868676e-15 1.785561965056379e-18 3.8900493642653515e-15 6.850170967321753" Properties=species:S:1:pos:R:3 unique_starting_index=60 config_type=initial n_minim_iter=18 stress="-0.0004705432480975626 2.3780236826626074e-14 3.088888866224895e-14 2.3780236826626074e-14 -0.0012187445337861688 -1.2134673782632477e-14 3.088888866224895e-14 -1.2134673782632477e-14 -0.0001239522333542964" pbc="T T T"
Si       2.70103426       3.20104083      -0.08213268
Si       2.70103426       5.31144783       6.93230365
Si       0.08322883       1.05520350       3.34295280
Si       0.08322883       7.45728515       3.50721816
Si       3.79181109       6.00899571       3.74473318
Si       3.79181109       2.50349294       3.10543779
Si       1.17400566       6.75973727       7.16981866
Si       1.17400566       1.75275138      -0.31964769
Si       1.14258523       4.10145836       5.65104704
Si       1.14258523       4.41103029       1.19912393
Si       3.76039066       0.15478597       2.22596155
Si       3.76039066       8.35770269       4.62420941
12
Lattice="5.179671893810547 -5.039392508107129e-18 -2.0382827267533686e-18 7.960929916072766e-18 8.436551788165593 -4.701033281852529e-15 1.7959657743037807e-18 3.936305279683066e-15 6.903383366557598" Properties=species:S:1:pos:R:3 unique_starting_index=60 config_type=initial n_minim_iter=19 stress="-0.015302296191813634 2.5546672409061956e-14 3.0487450008884135e-14 2.5546672409061956e-14 0.003912581660626449 -1.2607723547553699e-14 3.0487450008884135e-14 -1.2607723547553699e-14 -0.0017793621650091485" pbc="T T T"
Si       2.68171295       3.16357882      -0.09911886
Si       2.68171295       5.27297297       7.00250222
Si       0.09187700       1.05469707       3.35257282
Si       0.09187700       7.38185472       3.55081054
Si       3.75539850       5.92347903       3.79258598
Si       3.75539850       2.51307276       3.11079738
Si       1.16556255       6.73134865       7.24427767
Si       1.16556255       1.70520313      -0.34089430
Si       1.11673973       4.07929749       5.70862566
Si       1.11673973       4.35725430       1.19475770
Si       3.70657567       0.13897841       2.25693398
Si       3.70657567       8.29757338       4.64644939
12
Lattice="5.203474330294594 -5.178760046133278e-18 -2.0309368321049306e-18 7.724292237637232e-18 8.40083164803419 -4.681270363649453e-15 1.845131458924726e-18 3.976561637586189e-15 6.976717044560352" Properties=species:S:1:pos:R:3 unique_starting_index=60 config_type=initial n_minim_iter=20 stress="-0.0011613817915847808 2.6226918571951797e-14 3.166706113756006e-14 2.6226918571951797e-14 -0.0063689283804932 -1.1396305078135011e-14 3.166706113756006e-14 -1.1396305078135011e-14 0.00512458757718671" pbc="T T T"
Si       2.69219911       3.15047307      -0.13052113
Si       2.69219911       5.25035858       7.10723818
Si       0.09046195       1.04994276       3.35783739
Si       0.09046195       7.35088889       3.61887965
Si       3.79685526       5.87099203       3.85455374
Si       3.79685526       2.52983962       3.12216330
Si       1.19511809       6.73025544       7.34291226
Si       1.19511809       1.67057621      -0.36619522
Si       1.09950943       4.06353205       5.78873552
Si       1.09950943       4.33729959       1.18798152
Si       3.70124660       0.13688377       2.30037700
Si       3.70124660       8.26394788       4.67634004
12
Lattice="5.204787593004633 -5.214389867726456e-18 -2.0207457287262494e-18 7.639565271275643e-18 8.375566383988668 -4.67889505933409e-15 1.8644942921212042e-18 3.971911233993012e-15 6.987079372203369" Properties=species:S:1:pos:R:3 unique_starting_index=60 config_type=initial n_minim_iter=21 stress="-0.01191225927546023 3.18682221227749e-14 3.3600689922724e-14 3.18682221227749e-14 -0.01600046299278123 -1.0547896737834384e-14 3.3600689922724e-14 -1.0547896737834384e-14 0.00028060021514186265" pbc="T T T"
Si       2.69720937       3.13744140      -0.12667124
Si       2.69720937       5.23812499       7.11375062
Si       0.09481557       1.05034179       3.36686844
Si       0.09481557       7.32522459       3.62021093
Si       3.78828434       5.86004340       3.85265277
Si       3.78828434       2.51552299       3.13442660
Si       1.18589054       6.70330618       7.34619245
Si       1.18589054       1.67226021      -0.35911308
Si       1.10498531       4.04672538       5.80049457
Si       1.10498531       4.32884101       1.18658480
Si       3.70737911       0.14105781       2.30695488
Si       3.70737911       8.23450857       4.68012449
