20
Lattice="7.129590447929279 1.1118112820724686e-48 2.220678660342593e-32 8.461853026747809e-50 7.129590447929279 -3.8411926561048407e-16 -1.8799956176794604e-32 3.2519001911899986e-16 6.0358119512386175" Properties=species:S:1:pos:R:3 unique_starting_index=96 config_type=initial n_minim_iter=1 energy=-3254.30602329247 free_energy=-3254.30602329247 pbc="T T T"
Si       5.33218421       4.41844858       1.26122088
Si       1.79551419       2.71173792       1.26122088
Si       4.41720453       1.79675824       4.27912686
Si       2.71049387       5.33342826       4.27912686
Si       5.36030941       0.85365335       1.26122088
Si       1.76738898       6.27653315       1.26122088
Si       6.27528909       5.36155346       4.27912686
Si       0.85240930       1.76863303       4.27912686
Si       2.65717757       0.90696965       5.78807984
Si       4.47052082       6.22321685       5.78807984
Si       0.90572560       4.47176488       2.77017387
Si       6.22197280       2.65842162       2.77017387
Si       0.90572560       4.47176488       5.78807984
Si       6.22197280       2.65842162       5.78807984
Si       2.65717757       0.90696965       2.77017387
Si       4.47052082       6.22321685       2.77017387
Si      -0.00094603       0.00029803       5.78807984
Si      -0.00094603       7.12988847       2.77017387
Si       3.56384920       3.56509325       5.78807984
Si       3.56384920       3.56509325       2.77017387
