12
Lattice="8.105369399328154 0.5351341534085816 0.4377063454217775 3.5390929107089404 6.093459447252716 -0.4848976503071478 4.242160892167002 -1.0721048570222673 6.095147525268891" Properties=species:S:1:pos:R:3 unique_starting_index=78 config_type=initial n_minim_iter=1 energy=-1957.0887954471782 free_energy=-1957.0887954471782 pbc="T T T"
Si       4.66796758       2.70176276       3.08920864
Si      10.84291047       2.19557827       2.18305341
Si      13.43680806       6.41397857       1.38032661
Si       6.57367302       1.91117176       2.60224961
Si       5.83275172       4.02145244       1.89125949
Si       9.05493365       4.86682098       4.98205543
Si       7.97868698       1.00621068       1.28655860
Si       9.42954639       3.00301044       5.92981189
Si       6.03926437       0.25903570       0.82040193
Si       9.45432510       2.35500820       0.57599116
Si       5.92864999       2.31641477       4.76412322
Si       7.43619736       3.60684307       5.51449917
12
Lattice="8.102184133918641 0.5359289945629662 0.4359616099102449 3.5384734475274913 6.0915766765675405 -0.4838811855519201 4.23929686215565 -1.0700491831123542 6.088556298333698" Properties=species:S:1:pos:R:3 unique_starting_index=78 config_type=initial n_minim_iter=2 stress="-0.009761062912916644 -0.00040681372756717004 -0.0008382747875824658 -0.00040681372756717004 -0.004737430714282311 -0.0032121783817910883 -0.0008382747875824658 -0.0032121783817910883 0.0020039587676401963" pbc="T T T"
Si       4.66604030       2.70198925       3.08609895
Si      10.83839973       2.19632209       2.17939064
Si      13.43208738       6.41350757       1.37783035
Si       6.57087041       1.91174993       2.59905819
Si       5.83044488       4.02100177       1.88923236
Si       9.05099358       4.86699843       4.97696888
Si       7.97532863       1.00705422       1.28418098
Si       9.42507509       3.00423794       5.92325226
Si       6.03689089       0.25979034       0.81860641
Si       9.45098221       2.35537184       0.57435678
Si       5.92563232       2.31709138       4.75904589
Si       7.43279967       3.60740833       5.50878825
12
Lattice="8.108317596463296 0.5373024801971888 0.4354660808472326 3.541927000660037 6.093237994063913 -0.48060249858456106 4.242073504065563 -1.066767587647122 6.082306650298336" Properties=species:S:1:pos:R:3 unique_starting_index=78 config_type=initial n_minim_iter=3 stress="0.0033004039848570214 0.00029611065236282796 -0.002489064737292315 0.00029611065236282796 0.0048682466936245455 0.001997852452157326 -0.002489064737292315 0.001997852452157326 -0.003415547063370994" pbc="T T T"
Si       4.66994174       2.70493378       3.08452116
Si      10.84652966       2.19906178       2.17776988
Si      13.44330834       6.41755203       1.37919003
Si       6.57602535       1.91436982       2.59738799
Si       5.83494836       4.02354759       1.88916192
Si       9.05803646       4.87161436       4.97454220
Si       7.98093478       1.00919161       1.28321737
Si       9.43221575       3.00913702       5.91891215
Si       6.04158688       0.26106784       0.81768182
Si       9.45878659       2.35763516       0.57475819
Si       5.92988686       2.32044434       4.75543160
Si       7.43876844       3.61172865       5.50517582
12
Lattice="8.109908942161047 0.5373539771914676 0.4386921991573526 3.5425734003459963 6.090212705898509 -0.4788638792330805 4.2451809649716505 -1.065738084287149 6.083725776159964" Properties=species:S:1:pos:R:3 unique_starting_index=78 config_type=initial n_minim_iter=4 stress="0.003689677068721193 -0.0017116719770063817 0.002241180778998745 -0.0017116719770063817 -0.0020960873065741154 0.0010412319488904466 0.002241180778998745 0.0010412319488904466 -0.0025968665640151425" pbc="T T T"
Si       4.67244256       2.70411560       3.08651093
Si      10.84915688       2.19796536       2.18188040
Si      13.44691694       6.41520879       1.38517447
Si       6.57824341       1.91394401       2.60014601
Si       5.83639610       4.02164160       1.89152497
Si       9.06131517       4.86973978       4.97803862
Si       7.98237662       1.00930538       1.28641732
Si       9.43616486       3.00835411       5.92259017
Si       6.04342756       0.26125334       0.81998160
Si       9.46122829       2.35690441       0.57876521
Si       5.93265711       2.31934925       4.75763201
Si       7.44249551       3.61014325       5.50804108
12
Lattice="8.108710374845385 0.5401713091697552 0.4381268013320918 3.5440876164399104 6.0923236186464855 -0.4793283119601474 4.243602226589138 -1.064497296332612 6.085053369244405" Properties=species:S:1:pos:R:3 unique_starting_index=78 config_type=initial n_minim_iter=5 stress="-0.0013257001595215437 0.0029145170310313473 0.001141816482324615 0.0029145170310313473 0.0031360162623556937 0.002255573715806881 0.001141816482324615 0.002255573715806881 0.00028984746846260153" pbc="T T T"
Si       4.67269778       2.70633448       3.08721138
Si      10.84778232       2.20145553       2.18129571
Si      13.44689311       6.42123520       1.38464638
Si       6.57749705       1.91674009       2.60059116
Si       5.83607398       4.02404587       1.89132818
Si       9.06046528       4.87359288       4.97835066
Si       7.98113162       1.01231903       1.28616200
Si       9.43489255       3.01202941       5.92340546
Si       6.04310623       0.26341374       0.81958598
Si       9.46108342       2.36060253       0.57836338
Si       5.93187423       2.32125934       4.75833078
Si       7.44207276       3.61257339       5.50874754
12
Lattice="8.111671472687929 0.5385181070208409 0.43486724162328755 3.5446349974352653 6.090551597415462 -0.48275988915836343 4.243118104159279 -1.0670045069331415 6.084441194836215" Properties=species:S:1:pos:R:3 unique_starting_index=78 config_type=initial n_minim_iter=6 stress="0.0011923022254089412 -0.001452361229184575 -0.003726509371939693 -0.001452361229184575 -0.0002746908901795045 0.00012765554492631605 -0.003726509371939693 0.00012765554492631605 0.00035847982517063726" pbc="T T T"
Si       4.67318015       2.70441832       3.08536487
Si      10.85088524       2.19777109       2.17637172
Si      13.45047829       6.41770571       1.37745771
Si       6.57882386       1.91478613       2.59820078
Si       5.83607520       4.02132220       1.88756928
Si       9.06037640       4.86959672       4.97365748
Si       7.98382485       1.01046270       1.28280802
Si       9.43562597       3.00797473       5.91954401
Si       6.04612075       0.26224121       0.81708520
Si       9.46503703       2.35825901       0.57432293
Si       5.93190457       2.31761714       4.75576150
Si       7.44218667       3.60775103       5.50495634
12
Lattice="8.119275121881532 0.5406357770542063 0.43968852637685624 3.549278324190891 6.0913550320015 -0.48410713054570326 4.250519732017348 -1.0694360807168608 6.08599536692463" Properties=species:S:1:pos:R:3 unique_starting_index=78 config_type=initial n_minim_iter=7 stress="0.0010101680339380335 0.0014945099835569373 0.0002615015620862407 0.0014945099835569373 -6.0496982634980666e-05 -0.0019450091035497032 0.0002615015620862407 -0.0019450091035497032 -0.0019037897348544177" pbc="T T T"
Si       4.68095274       2.70518501       3.08722091
Si      10.86364676       2.19849159       2.18136864
Si      13.46371194       6.42131311       1.38084298
Si       6.58727984       1.91621961       2.60177776
Si       5.84085924       4.02087138       1.88706987
Si       9.07006247       4.86914062       4.97513162
Si       7.99352123       1.01269852       1.28671111
Si       9.44813216       3.00743982       5.92231786
Si       6.05494823       0.26403209       0.81999598
Si       9.47603744       2.36030740       0.57961996
Si       5.94073992       2.31437391       4.75673375
Si       7.45328505       3.60384855       5.50493228
12
Lattice="8.12006627331135 0.5380267734365369 0.44088922503742595 3.5476392484752677 6.089171596231515 -0.48233966721257554 4.252072285351459 -1.0691893947316977 6.087721922187865" Properties=species:S:1:pos:R:3 unique_starting_index=78 config_type=initial n_minim_iter=8 stress="-0.0025443080780281797 -0.0028598831743923796 0.00048835214664972 -0.0028598831743923796 0.0007517610808780383 0.002770503793277789 0.00048835214664972 0.002770503793277789 0.00023248553981953396" pbc="T T T"
Si       4.68133848       2.70474045       3.09006620
Si      10.86532484       2.19501773       2.18383651
Si      13.46245804       6.41657542       1.38392444
Si       6.58803515       1.91502931       2.60419284
Si       5.83895045       4.01867925       1.88843699
Si       9.06859721       4.86604076       4.97834781
Si       7.99456571       1.01058262       1.28806751
Si       9.44832540       3.00563384       5.92544314
Si       6.05724545       0.26265580       0.82068999
Si       9.47695035       2.35706317       0.58208364
Si       5.94132040       2.31236381       4.75929836
Si       7.45386652       3.60132140       5.50767416
12
Lattice="8.129295805644432 0.5405156166642346 0.43992775921487276 3.5541075218518414 6.0851740452460605 -0.4868917346102297 4.255827655765763 -1.0705511235135283 6.089811513357328" Properties=species:S:1:pos:R:3 unique_starting_index=78 config_type=initial n_minim_iter=9 stress="-0.0010617752277888603 0.0005349323201208137 -0.0009113624578799997 0.0005349323201208137 -0.002168313391334455 -0.0005651419278219155 -0.0009113624578799997 -0.0005651419278219155 0.0013057835212639864" pbc="T T T"
Si       4.68829028       2.70321975       3.09116311
Si      10.88065732       2.19612311       2.18237884
Si      13.47799512       6.41510068       1.37782066
Si       6.59685064       1.91541663       2.60393541
Si       5.84365746       4.01614593       1.88359367
Si       9.07730250       4.86006456       4.97486226
Si       8.00317058       1.01241701       1.28695537
Si       9.45790446       3.00309299       5.92355983
Si       6.06777226       0.26540239       0.81949694
Si       9.48967546       2.35832359       0.58144988
Si       5.94891451       2.30743309       4.75902883
Si       7.46366952       3.59589763       5.50590136
12
Lattice="8.159423428351172 0.5385793884865099 0.444231265117681 3.5665988961436295 6.078273183853703 -0.49789214211089683 4.276122100476145 -1.0836778685256943 6.086711636557591" Properties=species:S:1:pos:R:3 unique_starting_index=78 config_type=initial n_minim_iter=10 stress="-0.0065146728155356225 -0.0041212504394387405 0.001040549095224352 -0.0041212504394387405 0.0055807363451055485 -0.004217527373734699 0.001040549095224352 -0.004217527373734699 -0.0010721776991502122" pbc="T T T"
Si       4.71469504       2.69459125       3.09261593
Si      10.93110923       2.18898276       2.18254789
Si      13.52144424       6.40868987       1.36792982
Si       6.62429620       1.91189785       2.60290941
Si       5.85476213       4.00714995       1.86820227
Si       9.10654015       4.83710000       4.95919261
Si       8.03191487       1.01184892       1.28920624
Si       9.49121214       2.97952964       5.90911749
Si       6.10093128       0.26738579       0.81928565
Si       9.52732381       2.35020496       0.59115187
Si       5.97864553       2.28741474       4.75409851
Si       7.49444836       3.57330338       5.49487574
12
Lattice="8.20508643449192 0.5466354562806307 0.44488337466442673 3.594129304080475 6.058754450765529 -0.5031930659486604 4.299170273666992 -1.0797430338421259 6.087003958638524" Properties=species:S:1:pos:R:3 unique_starting_index=78 config_type=initial n_minim_iter=11 stress="0.00019654313364150973 0.0010892561404111 -0.000489424453745181 0.0010892561404111 0.00026422827865311646 0.0006700005562897001 -0.000489424453745181 0.0006700005562897001 0.004347507891634388" pbc="T T T"
Si       4.75212125       2.68906881       3.09854135
Si      11.00310353       2.19289731       2.18140462
Si      13.59687210       6.40522165       1.36009261
Si       6.66414507       1.91605394       2.60404246
Si       5.88060530       3.99749163       1.85748557
Si       9.15640983       4.81974796       4.95043142
Si       8.07865215       1.02063810       1.28964778
Si       9.54154318       2.96876894       5.89983160
Si       6.14383054       0.27769689       0.81632851
Si       9.58542422       2.34887550       0.59942332
Si       6.01958704       2.27499028       4.75507414
Si       7.54152023       3.55917398       5.49190993
12
Lattice="8.240158405101925 0.5463272939634699 0.4499883164040729 3.610164486770324 6.04923244628387 -0.5148577713388295 4.322149217923895 -1.0918373581336154 6.088022796605155" Properties=species:S:1:pos:R:3 unique_starting_index=78 config_type=initial n_minim_iter=12 stress="-0.002505225195817036 0.0027178696816745574 0.0023716699774741614 0.0027178696816745574 0.00300465360490826 -0.0023147539014222725 0.0023716699774741614 -0.0023147539014222725 0.0041879011879085585" pbc="T T T"
Si       4.78219923       2.67954986       3.09907735
Si      11.05723352       2.18509664       2.18142806
Si      13.65055559       6.39692803       1.34856271
Si       6.69507278       1.91227934       2.60352702
Si       5.89778738       3.98594845       1.84707620
Si       9.19335708       4.79587013       4.93691105
Si       8.11487061       1.02042410       1.29362176
Si       9.57934552       2.94661162       5.89095108
Si       6.17631597       0.28054557       0.81667684
Si       9.63031984       2.34496085       0.61014014
Si       6.05485662       2.25445169       4.75588345
Si       7.58142924       3.53735381       5.48607338
12
Lattice="8.265316176416187 0.5489768675493482 0.45027055319058723 3.623892147903091 6.037768262768848 -0.5150610696916965 4.335054794733881 -1.0881404287062297 6.085784188867029" Properties=species:S:1:pos:R:3 unique_starting_index=78 config_type=initial n_minim_iter=13 stress="-0.0031885551144703534 0.0031660968718067966 0.0018910198080062102 0.0031660968718067966 0.002257980566239761 -0.0015714932394191253 0.0018910198080062102 -0.0015714932394191253 0.0036576491751575168" pbc="T T T"
Si       4.80376871       2.67625876       3.10356760
Si      11.09508843       2.18396005       2.17948474
Si      13.69127857       6.38914044       1.34351235
Si       6.71672937       1.91408701       2.60166483
Si       5.91105272       3.98031730       1.84442769
Si       9.21894157       4.78966910       4.92963391
Si       8.13987887       1.02632290       1.29451094
Si       9.60368176       2.94033359       5.88747509
Si       6.20080746       0.28678001       0.81410005
Si       9.66165705       2.34384360       0.61500189
Si       6.07886869       2.24778108       4.75899127
Si       7.60704210       3.52874321       5.48509661
12
Lattice="8.327490789917192 0.5529487869597445 0.4531804782486253 3.6550953454817714 6.014888608506791 -0.5101178251619494 4.369043449207256 -1.077870272756661 6.077208373511595" Properties=species:S:1:pos:R:3 unique_starting_index=78 config_type=initial n_minim_iter=14 stress="-0.0005716128708737381 0.0013395209042458196 0.0009443546544144947 0.0013395209042458196 0.004340670821188025 0.0007917344847439871 0.0009443546544144947 0.0007917344847439871 -0.0005471601528594915" pbc="T T T"
Si       4.85686566       2.66897660       3.11929873
Si      11.18599751       2.17737442       2.17767111
Si      13.78986398       6.37559836       1.33759188
Si       6.76946836       1.91959842       2.59764933
Si       5.94584073       3.97042934       1.84297949
Si       9.27763494       4.78033533       4.91667388
Si       8.20203879       1.03365242       1.29492799
Si       9.66654798       2.92526378       5.88075482
Si       6.26495609       0.30194785       0.80937883
Si       9.73770489       2.34244595       0.62810186
Si       6.13654376       2.23465214       4.76551020
Si       7.67028247       3.52011211       5.48579363
12
Lattice="8.44683018889309 0.5741868738266186 0.46404236902623514 3.7245546274359893 5.974364575615434 -0.49825509512453325 4.435000767052676 -1.048902093657951 6.076253427600602" Properties=species:S:1:pos:R:3 unique_starting_index=78 config_type=initial n_minim_iter=15 stress="0.010370134880869153 -0.0008455844682550543 0.00016491080021115712 -0.0008455844682550543 0.007903123315533061 0.006364952037764249 0.00016491080021115712 0.006364952037764249 -0.0010021515475115105" pbc="T T T"
Si       4.96063273       2.66097307       3.15879777
Si      11.36008988       2.18101602       2.18525576
Si      13.98960558       6.37246899       1.33993183
Si       6.87773927       1.93741494       2.59692825
Si       6.02496555       3.95836762       1.85103441
Si       9.39952025       4.76921784       4.91615460
Si       8.32305613       1.06256571       1.30623942
Si       9.79646454       2.92168540       5.88373545
Si       6.38477039       0.33952351       0.80610723
Si       9.88659126       2.35351267       0.65935213
Si       6.25770908       2.22971391       4.78822227
Si       7.79316380       3.51379413       5.49955071
12
Lattice="8.568247971400117 0.5932782514200008 0.4700424247809568 3.793109922327844 5.9468366690548535 -0.4932355902854506 4.499307442764728 -1.0288068067687586 6.074412008279326" Properties=species:S:1:pos:R:3 unique_starting_index=78 config_type=initial n_minim_iter=16 stress="0.011885890241491741 0.0016401654357654707 -0.001546021005492516 0.0016401654357654707 0.015059694123953042 0.008391692438969636 -0.001546021005492516 0.008391692438969636 0.001235205434211646" pbc="T T T"
Si       5.06779453       2.65457385       3.19092124
Si      11.53570841       2.18578426       2.18551688
Si      14.19061792       6.37468075       1.33207842
Si       6.98039798       1.95650472       2.59366529
Si       6.10216213       3.94951662       1.85311604
Si       9.51834272       4.76250565       4.90942617
Si       8.44453801       1.08872208       1.30979637
Si       9.92347203       2.92095283       5.88109801
Si       6.50606755       0.37539902       0.80011868
Si      10.03615664       2.35945030       0.68430899
Si       6.37885192       2.22767525       4.80173535
Si       7.91853540       3.50973008       5.50703453
12
Lattice="8.833773491020084 0.6398290505439427 0.4854395740315611 3.9445496981773362 5.904699180807472 -0.4681440340205767 4.640577296903829 -0.9736786187062384 6.064810147207787" Properties=species:S:1:pos:R:3 unique_starting_index=78 config_type=initial n_minim_iter=17 stress="0.009548777652616334 0.007926806448022069 -0.007385318640619809 0.007926806448022069 0.030260459345713895 0.009690660417770166 -0.007385318640619809 0.009690660417770166 0.008560058779938297" pbc="T T T"
Si       5.29969052       2.65837978       3.25436943
Si      11.91207550       2.20458164       2.19041806
Si      14.62119062       6.40862373       1.33732950
Si       7.21259909       2.00445407       2.58099583
Si       6.26835640       3.94392020       1.86481555
Si       9.78111040       4.78111365       4.90245705
Si       8.70819212       1.14865713       1.32866597
Si      10.20475394       2.94808119       5.88873408
Si       6.77335851       0.46096626       0.78996895
Si      10.36228587       2.37422192       0.73910893
Si       6.65710942       2.24760498       4.83336430
Si       8.20099499       3.53339341       5.53315708
12
Lattice="8.974295485075757 0.6611820481313166 0.497361557171388 4.021426292804653 5.885637328790325 -0.4481751056698825 4.718704628499863 -0.942902918989372 6.056061109078418" Properties=species:S:1:pos:R:3 unique_starting_index=78 config_type=initial n_minim_iter=18 stress="0.015008148736659493 0.004751212697681476 -0.01134304519476335 0.004751212697681476 0.02403404224482529 0.00985761334431776 -0.01134304519476335 0.00985761334431776 0.008955433035871362" pbc="T T T"
Si       5.42639079       2.66024580       3.28699224
Si      12.10755851       2.21076854       2.19832804
Si      14.84601358       6.42437207       1.35227273
Si       7.33114209       2.02944722       2.57665073
Si       6.35612350       3.94402105       1.87373653
Si       9.92044397       4.79356784       4.90299562
Si       8.84841434       1.17583907       1.34282160
Si      10.35800742       2.96849040       5.89860723
Si       6.91343457       0.50344109       0.78807690
Si      10.53400008       2.38192306       0.76930003
Si       6.80959080       2.26420341       4.85110856
Si       8.34880128       3.55095741       5.54886950
12
Lattice="9.027892323682211 0.6671235362527077 0.5148885276093498 4.04365890295918 5.922837312500408 -0.4086985888958994 4.757835881920875 -0.9177231339391282 6.049614224942932" Properties=species:S:1:pos:R:3 unique_starting_index=78 config_type=initial n_minim_iter=19 stress="-0.0022241828227778796 0.0007257292201231996 -0.014193799882996228 0.0007257292201231996 0.020528066118312965 0.0005131464301732899 -0.014193799882996228 0.0005131464301732899 -0.0036664282458732313" pbc="T T T"
Si       5.48852603       2.67563475       3.31478297
Si      12.15404962       2.20626281       2.21941966
Si      14.92327566       6.47033316       1.41039697
Si       7.37092300       2.05159734       2.57301373
Si       6.39879218       3.97844281       1.90276452
Si       9.97344744       4.85832417       4.94052355
Si       8.90281493       1.18529085       1.36730850
Si      10.42264871       3.03693210       5.94205548
Si       6.95790877       0.53022349       0.79896774
Si      10.59010344       2.38369349       0.78263996
Si       6.89457539       2.32598310       4.86781423
Si       8.41906996       3.61642286       5.58475663
12
Lattice="9.034155571338069 0.6656213975156845 0.5566994255467108 4.036009324409363 5.963185622534525 -0.3329631346527675 4.788513692892045 -0.8705500309817603 6.07046111667375" Properties=species:S:1:pos:R:3 unique_starting_index=78 config_type=initial n_minim_iter=20 stress="-0.010307336343761941 -0.015772904708206692 -0.011622341302409469 -0.015772904708206692 -0.009033329570589102 -0.002130118962748934 -0.011622341302409469 -0.002130118962748934 -0.013945827088650725" pbc="T T T"
Si       5.51972161       2.71158977       3.36833175
Si      12.13222504       2.20823469       2.28086036
Si      14.91664476       6.50953867       1.54572110
Si       7.38100314       2.07811354       2.60855553
Si       6.40926239       4.01674292       1.97449866
Si      10.00229000       4.94969444       5.05151543
Si       8.90860647       1.18108423       1.41272141
Si      10.45047527       3.13293951       6.04200283
Si       6.97178472       0.53487071       0.83607300
Si      10.59876676       2.38549018       0.82180402
Si       6.94439988       2.41089802       4.92848478
Si       8.43032101       3.71234346       5.68071394
12
Lattice="9.223426951189701 0.6669481776457642 0.6279638622754943 4.1126372593918985 5.950043662020007 -0.2659942307051057 4.937076853935392 -0.8321598941741104 6.0959605884699215" Properties=species:S:1:pos:R:3 unique_starting_index=78 config_type=initial n_minim_iter=21 stress="-0.01797428215122004 -0.004437812726821886 -0.005826861693665098 -0.004437812726821886 -0.00641026401428952 -0.0006015583372033542 -0.005826861693665098 -0.0006015583372033542 -0.013507992170380316" pbc="T T T"
Si       5.72191782       2.71117120       3.47916618
Si      12.38399659       2.17584937       2.36428920
Si      15.18417802       6.51135217       1.68047365
Si       7.55949909       2.10005170       2.64893715
Si       6.51629637       4.02223504       2.02465695
Si      10.20930174       4.97939597       5.14373467
Si       9.10213555       1.19014845       1.48619415
Si      10.66634996       3.16686704       6.13865485
Si       7.16647040       0.56723117       0.88210163
Si      10.83295472       2.37142972       0.90960109
Si       7.17760026       2.44118303       5.01088441
Si       8.65186917       3.74416504       5.78516695
