22
Lattice="5.46746912294345 0.249710115327376 -0.04570423720004935 3.0755393422632356 5.304581542428923 0.24412109867829132 0.8645029229969234 0.9798087715546691 16.915987823580497" Properties=species:S:1:pos:R:3 unique_starting_index=40 config_type=initial n_minim_iter=1 energy=-3586.5523557213246 free_energy=-3586.5523557213246 pbc="T T T"
Si       6.03232526       2.59126356      13.42437242
Si       1.24144233       2.97940417       5.17088356
Si       4.90133803       1.14632019       7.44908661
Si       4.37739209       3.64692801      14.22699614
Si       3.73115014       2.73867293      16.03130619
Si       6.55468872       5.18454997       6.77023299
Si       5.85802124       2.52494124       2.06000205
Si       5.43780676       4.12979371      10.00725425
Si       4.30453846       2.22287938       0.60946051
Si       4.97723069       4.66959535      15.99773290
Si       5.90987537       2.53119619      11.31502530
Si       4.59048885       3.96507208      12.14219791
Si       2.33904947       3.04695708       0.71738756
Si       0.76597634      -0.20394138       8.72202051
Si       2.03992408       1.45887176      16.24187504
Si       7.21302250       5.02083884       9.05431951
Si       3.42666884       2.69461850       4.31057498
Si       4.37324504       5.87142146       6.78280956
Si       5.19327951       4.20237407       3.58204573
Si       5.29550130       1.80098144       9.42934446
Si       5.78909012       2.74909430      15.53472685
Si       4.86369751       1.41346469       5.34844568
22
Lattice="5.474561804410738 0.25031903190130456 -0.04355707569088468 3.0802108862695614 5.305209932433249 0.24697426983029103 0.8723561044896658 0.9842326203535658 16.937694421875808" Properties=species:S:1:pos:R:3 unique_starting_index=40 config_type=initial n_minim_iter=2 stress="0.005142584445687812 -0.0020756544210631237 -0.002443252936991034 -0.0020756544210631237 0.01083781668028515 -0.0009838857932755773 -0.002443252936991034 -0.0009838857932755773 0.00860498393755249" pbc="T T T"
Si       6.04572854       2.59543637      13.44432860
Si       1.24543357       2.98098487       5.17854876
Si       4.91100155       1.14893271       7.46085752
Si       4.38918500       3.65122474      14.24728994
Si       3.74250968       2.74322271      16.05348354
Si       6.56622305       5.18700773       6.78239116
Si       5.86673037       2.52624461       2.06549019
Si       5.44940485       4.13304100      10.02291179
Si       4.31048248       2.22382262       0.61231430
Si       4.99042466       4.67418343      16.02097347
Si       5.92222724       2.53495947      11.33210528
Si       4.60158959       3.96884629      12.16027183
Si       2.34272974       3.04755522       0.72007382
Si       0.77030699      -0.20156454       8.73305222
Si       2.04936419       1.46298994      16.26345565
Si       7.22628754       5.02404031       9.06980303
Si       3.43310444       2.69622899       4.31797266
Si       4.38219062       5.87376896       6.79453075
Si       5.20184484       4.20403331       3.58958127
Si       5.30623659       1.80402255       9.44363484
Si       5.80273048       2.75409944      15.55695988
Si       4.87227993       1.41547222       5.35711177
22
Lattice="5.4776107773604705 0.2521027984236848 -0.0395286448684116 3.0841656485336557 5.298779516556863 0.25121905105673953 0.8853870890682669 0.9896094181972586 16.939021733852396" Properties=species:S:1:pos:R:3 unique_starting_index=40 config_type=initial n_minim_iter=3 stress="0.003745448433071523 0.004743142866807354 0.003543623390058031 0.004743142866807354 -0.0014515781704144126 0.004374847804584326 0.003543623390058031 0.004374847804584326 0.0012141761694140748" pbc="T T T"
Si       6.05970290       2.59921706      13.45043638
Si       1.25107795       2.97912325       5.18060234
Si       4.92012184       1.15205384       7.46539632
Si       4.40379757       3.65314253      14.25183365
Si       3.75718370       2.74683812      16.05766214
Si       6.57651548       5.18432287       6.78894317
Si       5.87244216       2.52571815       2.07062017
Si       5.46163620       4.13277353      10.02859286
Si       4.31373067       2.22308975       0.61572641
Si       5.00637590       4.67480328      16.02694245
Si       5.93441089       2.53844945      11.33759489
Si       4.61439205       3.96941857      12.16570702
Si       2.34589210       3.04427001       0.72309146
Si       0.77665508      -0.19735851       8.73340032
Si       2.06339931       1.46722606      16.26609750
Si       7.23836845       5.02283487       9.07722595
Si       3.43915940       2.69536338       4.32152592
Si       4.39154865       5.86927433       6.80027100
Si       5.20883485       4.20130783       3.59490415
Si       5.31657470       1.80700726       9.44819976
Si       5.81744512       2.75910091      15.56215613
Si       4.87942931       1.41747895       5.36078054
22
Lattice="5.478313535664123 0.24535568307278455 -0.0408212239093431 3.078357588965998 5.2889823535631395 0.24559531663734963 0.8811948065752512 0.9710380191944294 16.945803517341247" Properties=species:S:1:pos:R:3 unique_starting_index=40 config_type=initial n_minim_iter=4 stress="0.005031352435074212 -0.0014257160386978796 0.004074997471666317 -0.0014257160386978796 -0.001577702715236348 -0.005372541335390087 0.004074997471666317 -0.005372541335390087 0.004870509979254448" pbc="T T T"
Si       6.05546174       2.57604895      13.45420779
Si       1.24698750       2.96936688       5.17963799
Si       4.91945995       1.13758161       7.46719146
Si       4.39897728       3.63051593      14.25352394
Si       3.75184634       2.72371400      16.06236562
Si       6.57029388       5.16383452       6.78541381
Si       5.87007806       2.51405161       2.06761981
Si       5.45677911       4.11218457      10.02746443
Si       4.31047934       2.21620131       0.61180737
Si       4.99812004       4.64665666      16.02932903
Si       5.93036901       2.51786977      11.33998377
Si       4.60781598       3.94787281      12.16793784
Si       2.34299024       3.03734516       0.72058080
Si       0.77470956      -0.20602580       8.73671073
Si       2.06065003       1.44572200      16.27266591
Si       7.23089535       4.99899338       9.07589784
Si       3.43580184       2.68428477       4.32018081
Si       4.38347972       5.85016196       6.79750391
Si       5.20383805       4.18692245       3.59124615
Si       5.31341046       1.78945875       9.44963461
Si       5.81059099       2.73594872      15.56473579
Si       4.87789864       1.40517111       5.35984699
22
Lattice="5.47725338969908 0.24422545589240433 -0.04451698512391276 3.076486954548031 5.2894833990746735 0.24681175448327847 0.8689016988784368 0.9818124670237683 16.94623366012767" Properties=species:S:1:pos:R:3 unique_starting_index=40 config_type=initial n_minim_iter=5 stress="0.005610906971220325 -0.003016472212206755 -0.0013000879718069007 -0.003016472212206755 -0.00021609121243575078 0.0019192223828695962 -0.0013000879718069007 0.0019192223828695962 0.0029641108657264418" pbc="T T T"
Si       6.04454383       2.58374104      13.45235451
Si       1.24260895       2.97299877       5.18062409
Si       4.91374859       1.14150086       7.46465727
Si       4.38803912       3.63956132      14.25288595
Si       3.73947739       2.73366313      16.06190521
Si       6.56310110       5.16743372       6.78393925
Si       5.86693054       2.51466760       2.06486078
Si       5.44833951       4.11821797      10.02610577
Si       4.30812137       2.21676916       0.60979553
Si       4.98445909       4.65609628      16.02936278
Si       5.92076966       2.52458798      11.33818291
Si       4.59726923       3.95553209      12.16827407
Si       2.34160857       3.03794695       0.72135288
Si       0.76815400      -0.20052048       8.73579857
Si       2.04884873       1.45525655      16.27283803
Si       7.22149404       5.00372993       9.07457326
Si       3.43156586       2.68693174       4.31952696
Si       4.37635147       5.85415413       6.79865812
Si       5.19928827       4.18887759       3.59018833
Si       5.30522808       1.79476174       9.44726530
Si       5.79769168       2.74574650      15.56243155
Si       4.87309431       1.40794189       5.35703941
22
Lattice="5.473429877978764 0.2471262165879937 -0.045107979210405075 3.0768931994913644 5.294428216536747 0.24620384202973655 0.867041509792644 0.9816746324871389 16.95182504516478" Properties=species:S:1:pos:R:3 unique_starting_index=40 config_type=initial n_minim_iter=6 stress="-0.002761487734525443 0.003885697259406372 0.0006096427134903982 0.003885697259406372 0.003315327568178897 -0.0015004493344675147 0.0006096427134903982 -0.0015004493344675147 0.008019596625318613" pbc="T T T"
Si       6.04037456       2.58741483      13.45660116
Si       1.24287493       2.97524286       5.18178912
Si       4.91081579       1.14426337       7.46625568
Si       4.38617655       3.64330668      14.25680393
Si       3.73669848       2.73637083      16.06668472
Si       6.56009729       5.17308098       6.78469336
Si       5.86366028       2.51917919       2.06434282
Si       5.44611228       4.12307489      10.02793719
Si       4.30537132       2.22094629       0.60938461
Si       4.98077449       4.66015728      16.03389208
Si       5.91635320       2.52903396      11.34238321
Si       4.59463068       3.95942397      12.17232202
Si       2.34168213       3.04103504       0.72169683
Si       0.76636908      -0.20084937       8.73826364
Si       2.04636931       1.45533087      16.27829911
Si       7.21708521       5.00937068       9.07694740
Si       3.43002213       2.69025851       4.32036051
Si       4.37502875       5.85886371       6.80058863
Si       5.19704033       4.19390333       3.59032066
Si       5.30115046       1.79802867       9.44986565
Si       5.79362038       2.74972865      15.56671116
Si       4.87003094       1.41106429       5.35788667
22
Lattice="5.4784140180091825 0.2445695785243064 -0.0439746285604669 3.0772164997587166 5.295572078357624 0.2464132235537933 0.8707280411503155 0.981370565550615 16.932232436370377" Properties=species:S:1:pos:R:3 unique_starting_index=40 config_type=initial n_minim_iter=7 stress="0.006436077205652526 0.002952767264964572 0.0019669974353297873 0.002952767264964572 0.006906393800607041 -0.0027729298973106424 0.0019669974353297873 -0.0027729298973106424 -0.004954271116539674" pbc="T T T"
Si       6.04841146       2.58509181      13.44296525
Si       1.24414125       2.97619733       5.17524982
Si       4.91657886       1.14199639       7.45756912
Si       4.39310559       3.64327271      14.24096110
Si       3.74198485       2.73644435      16.04811291
Si       6.56492280       5.17127350       6.77684003
Si       5.86806452       2.51779889       2.06186833
Si       5.45291202       4.12238780      10.01561477
Si       4.30730839       2.22108938       0.61010170
Si       4.98408932       4.65962443      16.01556401
Si       5.92201324       2.52920423      11.33306746
Si       4.59927210       3.95865251      12.16036942
Si       2.34310925       3.04131394       0.72245981
Si       0.76869473      -0.20174141       8.72755172
Si       2.05012375       1.45300692      16.26018472
Si       7.22159201       5.00748271       9.06792281
Si       3.43283201       2.69031354       4.31571558
Si       4.37715347       5.85726777       6.79437242
Si       5.19992573       4.19329231       3.58638127
Si       5.30668059       1.79649116       9.44022371
Si       5.80263370       2.74845741      15.54957668
Si       4.87574814       1.40962284       5.35209796
22
Lattice="5.474437162037592 0.2359464278263755 -0.04366558765750788 3.0671888126188347 5.283785216809927 0.24922196216608963 0.8694420827524242 0.986377032865412 16.951454677086268" Properties=species:S:1:pos:R:3 unique_starting_index=40 config_type=initial n_minim_iter=8 stress="0.0018557600267882866 -0.0023798090711815998 0.0010723539558570095 -0.0023798090711815998 0.003228078322262908 0.0011033830192611253 0.0010723539558570095 0.0011033830192611253 0.002210567686669856" pbc="T T T"
Si       6.04286630       2.57791272      13.46117077
Si       1.23999481       2.97290183       5.18116869
Si       4.91118788       1.13512444       7.46542720
Si       4.38834813       3.63886459      14.25888025
Si       3.73589408       2.73573739      16.06631328
Si       6.55330446       5.15590013       6.78526048
Si       5.86006083       2.50691158       2.06350264
Si       5.44646691       4.11285198      10.02631731
Si       4.29950759       2.21350845       0.61346985
Si       4.97068434       4.65322433      16.03460163
Si       5.91324134       2.52565374      11.35052858
Si       4.59048725       3.95170118      12.17762963
Si       2.33794098       3.03372838       0.72670101
Si       0.76844210      -0.19911730       8.73627473
Si       2.04590634       1.45281991      16.27952286
Si       7.20757698       4.99334172       9.08032468
Si       3.42681631       2.68424142       4.32145196
Si       4.36535946       5.84171528       6.80622290
Si       5.18924273       4.18116494       3.59125096
Si       5.30034458       1.79083265       9.45248163
Si       5.79879119       2.74365796      15.56886868
Si       4.87204109       1.40339170       5.35785406
22
Lattice="5.476329038001543 0.23657336614083563 -0.04815311441808591 3.0687596788576346 5.280746249253685 0.24443285066766937 0.8563365424274021 0.9783862739787951 16.951709044960985" Properties=species:S:1:pos:R:3 unique_starting_index=40 config_type=initial n_minim_iter=9 stress="0.004393254322836352 0.00013934097576903356 -0.004751309674516054 0.00013934097576903356 -0.00018538214265363895 -0.000990574779671416 -0.004751309674516054 -0.000990574779671416 0.0008194665782189744" pbc="T T T"
Si       6.03540114       2.57092621      13.45764911
Si       1.23718536       2.96908083       5.17858356
Si       4.90657336       1.13170126       7.46185284
Si       4.38049494       3.63086088      14.25510165
Si       3.72479956       2.72847415      16.06344173
Si       6.55051920       5.14941527       6.77715051
Si       5.86057553       2.50550418       2.05686502
Si       5.44184783       4.10630163      10.01976608
Si       4.30040895       2.21288643       0.60960907
Si       4.95832243       4.64394526      16.02955885
Si       5.90583927       2.52123271      11.34567407
Si       4.58228374       3.94500336      12.17369562
Si       2.33879921       3.03148536       0.72410756
Si       0.76138987      -0.20284910       8.73636727
Si       2.03298329       1.44417672      16.27884648
Si       7.20275733       4.98711455       9.07274909
Si       3.42493705       2.68153881       4.31764090
Si       4.36259208       5.83332308       6.80118959
Si       5.18815708       4.17757430       3.58484287
Si       5.29481442       1.78634963       9.44865098
Si       5.78987609       2.73640945      15.56544999
Si       4.87035370       1.40111143       5.35357394
22
Lattice="5.471462688622373 0.23116054500437677 -0.045427971740971414 3.060857403414069 5.2816343343437575 0.24509913634856653 0.863090513005943 0.9757841105001293 16.944912335976202" Properties=species:S:1:pos:R:3 unique_starting_index=40 config_type=initial n_minim_iter=10 stress="-0.0006292584996038372 -3.521051143554598e-05 0.00044052067068645935 -3.521051143554598e-05 0.0009102298576910409 -0.00119282731943937 0.00044052067068645935 -0.00119282731943937 0.0012663122052449345" pbc="T T T"
Si       6.03730543       2.56399397      13.45886816
Si       1.23716513       2.96990397       5.17443731
Si       4.90433568       1.12636675       7.46179732
Si       4.38430023       3.62622725      14.25121758
Si       3.72754147       2.72747594      16.05790552
Si       6.54182385       5.14189146       6.77320365
Si       5.85389691       2.50204806       2.05576898
Si       5.44015379       4.10211979      10.01371597
Si       4.29456275       2.21117463       0.61221446
Si       4.95197911       4.64011945      16.02476291
Si       5.90258167       2.51819298      11.34260180
Si       4.57810494       3.94414298      12.17143540
Si       2.33422793       3.03040569       0.72602767
Si       0.76440245      -0.20557348       8.73342779
Si       2.03647160       1.43933272      16.27383950
Si       7.19504942       4.98284714       9.07013997
Si       3.42158318       2.68077585       4.31644992
Si       4.35690909       5.82543682       6.80151542
Si       5.17967833       4.17477027       3.58321278
Si       5.29348214       1.78105626       9.44841571
Si       5.79187151       2.73241410      15.56599622
Si       4.86988336       1.39723116       5.35382114
22
Lattice="5.4680003059914615 0.22685000168851868 -0.048939644114641474 3.0548121731741786 5.275596756029275 0.24098227020786056 0.8512958737208174 0.9673629736081344 16.945579363782084" Properties=species:S:1:pos:R:3 unique_starting_index=40 config_type=initial n_minim_iter=11 stress="-0.003769860826806327 0.0003484126549319239 0.00011900510441323927 0.0003484126549319239 -0.0037236232093619693 0.0001686677036305188 0.00011900510441323927 0.0001686677036305188 -0.0038919668847353234" pbc="T T T"
Si       6.03157819       2.54891878      13.45592688
Si       1.23417084       2.96606269       5.16763732
Si       4.89499863       1.11794838       7.45619097
Si       4.37604511       3.61110081      14.24664138
Si       3.71096352       2.72029182      16.05592145
Si       6.52983953       5.12461635       6.76156024
Si       5.84821967       2.49742410       2.04637767
Si       5.42888656       4.08956473      10.00138117
Si       4.29162115       2.20868071       0.61047501
Si       4.92506629       4.62599321      16.02691930
Si       5.88739891       2.51396730      11.34198449
Si       4.55971062       3.93922152      12.16735404
Si       2.32854357       3.02464999       0.72633199
Si       0.75655566      -0.20945161       8.73624823
Si       2.02401511       1.42996176      16.27574735
Si       7.17932447       4.97026552       9.06174610
Si       3.41500160       2.67742093       4.31196957
Si       4.34535374       5.79953705       6.80196176
Si       5.16772085       4.16613109       3.57362671
Si       5.28447777       1.76994517       9.44633950
Si       5.77800504       2.72587482      15.57465442
Si       4.86809123       1.39193490       5.35279958
22
Lattice="5.466126842788129 0.22154285934625206 -0.06007379343335408 3.0473826624821942 5.288828106924262 0.22600645336719524 0.8164928124043691 0.9423843457414005 16.91588089543511" Properties=species:S:1:pos:R:3 unique_starting_index=40 config_type=initial n_minim_iter=12 stress="-0.006796870820584928 0.00030873241100080656 -0.002318430315722542 0.00030873241100080656 -0.0009895635229638226 0.00017104956239221653 -0.002318430315722542 0.00017104956239221653 -0.003318683218115015" pbc="T T T"
Si       6.01626899       2.52407178      13.42787402
Si       1.22735918       2.96909906       5.13913959
Si       4.87764081       1.09759728       7.43229577
Si       4.35649317       3.58149328      14.20459525
Si       3.66880130       2.70751596      16.01635905
Si       6.51399263       5.11366527       6.71969111
Si       5.84732639       2.50240833       2.02113399
Si       5.40135598       4.07271525       9.95411551
Si       4.28639365       2.21215873       0.60941218
Si       4.86128346       4.61381551      15.99915164
Si       5.85263749       2.51612253      11.31259647
Si       4.51906341       3.94201067      12.12754675
Si       2.31835835       3.02791801       0.72350000
Si       0.73439329      -0.22293543       8.72621858
Si       1.99414617       1.41077735      16.24997506
Si       7.15056035       4.96431534       9.01853259
Si       3.40283629       2.68183940       4.29032721
Si       4.32092432       5.76485128       6.78657471
Si       5.14693468       4.16759189       3.53934629
Si       5.26570282       1.74952241       9.41823279
Si       5.74474796       2.71550031      15.54326198
Si       4.86754368       1.38682599       5.33285235
22
Lattice="5.468347171362907 0.21546119862253418 -0.06562056516539816 3.0424369587061886 5.287529869866577 0.21334626471291532 0.7998462713206164 0.9114851900632197 16.89702544348823" Properties=species:S:1:pos:R:3 unique_starting_index=40 config_type=initial n_minim_iter=13 stress="-0.006423697414847051 0.0034018444182914802 -0.005738339448990417 0.0034018444182914802 -0.0011453607101562435 -0.0005764572717327904 -0.005738339448990417 -0.0005764572717327904 0.002008292876631683" pbc="T T T"
Si       6.02054376       2.48871476      13.41162101
Si       1.22618063       2.96303428       5.11429208
Si       4.87171753       1.07356095       7.41971151
Si       4.34963409       3.54186242      14.17848516
Si       3.65276577       2.68665431      15.98975033
Si       6.51018643       5.08807868       6.68863030
Si       5.85765493       2.50080727       2.00728017
Si       5.38521469       4.04497644       9.91688456
Si       4.27636756       2.21123028       0.60666510
Si       4.81822383       4.58025859      15.98616609
Si       5.83503070       2.50502983      11.29786873
Si       4.49501266       3.93143221      12.09777528
Si       2.31240218       3.02194157       0.72230436
Si       0.72522202      -0.24014498       8.72247221
Si       1.97788872       1.38728947      16.23383023
Si       7.13614034       4.94232213       8.98792872
Si       3.39768734       2.67768938       4.27438761
Si       4.30710589       5.71275304       6.77864088
Si       5.13428853       4.15713538       3.51215074
Si       5.26047652       1.72491319       9.40334051
Si       5.73404665       2.69120825      15.52507231
Si       4.87600206       1.37721380       5.31724745
22
Lattice="5.4771863238869125 0.17233269862131884 -0.07303076087783997 3.0076066802680503 5.22954927178431 0.1803220859054196 0.7751837724100554 0.8054484433805615 16.867424037536885" Properties=species:S:1:pos:R:3 unique_starting_index=40 config_type=initial n_minim_iter=14 stress="-0.005190348594007436 0.0012109206991099436 -0.003365986999442639 0.0012109206991099436 -0.004872148726412979 -0.005100091758210667 -0.003365986999442639 -0.005100091758210667 0.008465869070492994" pbc="T T T"
Si       6.04117462       2.34035590      13.38977193
Si       1.21770362       2.91601308       5.04899877
Si       4.87316668       0.97924279       7.39458683
Si       4.34537680       3.38379227      14.10934415
Si       3.62614800       2.58122743      15.94078279
Si       6.48749224       4.94097424       6.61532434
Si       5.88655437       2.45078540       1.98004664
Si       5.33997797       3.90396165       9.83438504
Si       4.24551155       2.16721224       0.61569711
Si       4.69762962       4.41740466      15.96902298
Si       5.79520288       2.42092807      11.27786832
Si       4.42958985       3.84401703      12.04858831
Si       2.27934474       2.97527594       0.72755947
Si       0.71358399      -0.29809884       8.72097569
Si       1.94769438       1.29623655      16.20780633
Si       7.09067649       4.80222427       8.92643808
Si       3.38014161       2.62813753       4.23884747
Si       4.25857690       5.49256675       6.77173042
Si       5.08968091       4.07251098       3.44586463
Si       5.25566167       1.62248028       9.39095357
Si       5.72096441       2.56716679      15.50330314
Si       4.90695766       1.31505512       5.29009423
22
Lattice="5.476980461360895 0.16614722893077863 -0.07433118943693771 3.0017343897474045 5.222420846334659 0.17759414746169233 0.7703785556309711 0.7973260049220329 16.86602264608168" Properties=species:S:1:pos:R:3 unique_starting_index=40 config_type=initial n_minim_iter=15 stress="-0.006940830164481244 -0.006613064524827062 -0.00482622669426192 -0.006613064524827062 -0.013692946847843872 -0.005638917030729021 -0.00482622669426192 -0.005638917030729021 0.007586191461091037" pbc="T T T"
Si       6.03881756       2.32609130      13.38695768
Si       1.21449035       2.91159644       5.04356405
Si       4.87278106       0.96991157       7.39349447
Si       4.34049525       3.36958083      14.10598447
Si       3.62066791       2.57204593      15.93740544
Si       6.48065503       4.92499786       6.60902016
Si       5.88662181       2.44351232       1.97714982
Si       5.33217313       3.88927539       9.82855794
Si       4.24191909       2.16081231       0.61703498
Si       4.68204567       4.40224499      15.96745083
Si       5.78827484       2.41175807      11.27764924
Si       4.42064859       3.83454527      12.04368123
Si       2.27467148       2.96964425       0.72815128
Si       0.71038452      -0.30256840       8.72037173
Si       1.94189911       1.28786353      16.20610965
Si       7.08274386       4.78705946       8.92145443
Si       3.37631754       2.62208540       4.23593221
Si       4.25070903       5.47091635       6.77156996
Si       5.08304066       4.06300389       3.44037802
Si       5.25199186       1.61233853       9.38940074
Si       5.71468591       2.55518714      15.50167070
Si       4.90759724       1.30768282       5.28799488
22
Lattice="5.476519477589121 0.1634097395630573 -0.07124158949238016 2.999088690666424 5.220251182114294 0.18148235652811154 0.7790092375195179 0.8041757778808508 16.859798873067415" Properties=species:S:1:pos:R:3 unique_starting_index=40 config_type=initial n_minim_iter=16 stress="-0.0007005601384203185 -0.003383547623030309 -0.005812655615012148 -0.003383547623030309 -0.0007054852914918029 -0.003055849925531278 -0.005812655615012148 -0.003055849925531278 -0.0007765115078995643" pbc="T T T"
Si       6.04026611       2.33213714      13.38017741
Si       1.21345645       2.91363160       5.04222707
Si       4.88140535       0.97195347       7.39638383
Si       4.34355525       3.37875045      14.10899121
Si       3.62905177       2.57180066      15.93535497
Si       6.47944323       4.92517767       6.61350914
Si       5.88797974       2.44087748       1.98229778
Si       5.33387309       3.88832001       9.83458343
Si       4.24156050       2.15761906       0.62115253
Si       4.69139942       4.40980821      15.96006200
Si       5.79466098       2.41033450      11.28029273
Si       4.42781711       3.83512151      12.03996762
Si       2.27364859       2.96763810       0.73075025
Si       0.71245251      -0.30088239       8.71267980
Si       1.94810886       1.29111737      16.19710394
Si       7.08689778       4.78678786       8.92466432
Si       3.37706114       2.62029077       4.23754973
Si       4.25333152       5.46874204       6.77262797
Si       5.08478509       4.06331571       3.44526488
Si       5.25397111       1.61818282       9.38911158
Si       5.71685323       2.55897145      15.49712051
Si       4.90936570       1.30707022       5.28988042
22
Lattice="5.484388226613905 0.15817700012875832 -0.062393844688592943 2.9995195927373954 5.208128215036643 0.19735924109283695 0.8054360202604225 0.8361734310543093 16.884609273282607" Properties=species:S:1:pos:R:3 unique_starting_index=40 config_type=initial n_minim_iter=17 stress="0.00880632892746685 -0.0037648149790060256 -0.0014754011744139983 -0.0037648149790060256 -0.0022919026087816104 0.0025622936559263464 -0.0014754011744139983 0.0025622936559263464 0.0004362509886173542" pbc="T T T"
Si       6.05712135       2.35864143      13.41487472
Si       1.21590398       2.91998219       5.05281620
Si       4.90667952       0.98389732       7.40860310
Si       4.36643435       3.40594147      14.14571358
Si       3.65763183       2.59527581      15.97074551
Si       6.49604877       4.93023772       6.64899318
Si       5.89789936       2.43387965       1.99839379
Si       5.34887402       3.89606050       9.87113723
Si       4.25311170       2.15548452       0.63294087
Si       4.72116966       4.43097082      15.99606731
Si       5.82336229       2.41688602      11.30981240
Si       4.45487135       3.84445644      12.06753594
Si       2.27787661       2.95757771       0.74120766
Si       0.72546823      -0.28564555       8.72074115
Si       1.96828983       1.31309293      16.21636576
Si       7.10608220       4.78704472       8.96137109
Si       3.38619761       2.61738337       4.25437065
Si       4.26874626       5.46060719       6.79829958
Si       5.09910239       4.06316039       3.46977758
Si       5.27209218       1.63283191       9.40584435
Si       5.74401471       2.57825208      15.52556863
Si       4.92452414       1.30943193       5.31615239
22
Lattice="5.481621542444361 0.1525903836983846 -0.05318599563796867 2.993015439781786 5.209139729515965 0.21020724300972574 0.8313909373934324 0.8610071867868785 16.889307041936455" Properties=species:S:1:pos:R:3 unique_starting_index=40 config_type=initial n_minim_iter=18 stress="0.012179118470566479 -0.0010924272022762112 0.0018419091404695608 -0.0010924272022762112 2.6659591542830937e-05 0.004451462723110195 0.0018419091404695608 0.004451462723110195 -0.007174555638528342" pbc="T T T"
Si       6.06582473       2.38190640      13.43099923
Si       1.21577363       2.93193192       5.05399174
Si       4.92204620       0.99217881       7.42338810
Si       4.37878751       3.43662500      14.15695560
Si       3.67542473       2.61550418      15.98585224
Si       6.49975709       4.94332830       6.67429792
Si       5.89561287       2.43156984       2.00951064
Si       5.35168545       3.90879653       9.89230319
Si       4.25832406       2.15916042       0.64333178
Si       4.73918975       4.45309963      16.01313577
Si       5.83864879       2.42434766      11.32586993
Si       4.47488779       3.85353262      12.08480524
Si       2.27777372       2.95398803       0.75077151
Si       0.73804000      -0.27495362       8.72166904
Si       1.98626208       1.33380379      16.21552751
Si       7.11015906       4.79458855       8.98426323
Si       3.38847167       2.61844133       4.26461579
Si       4.27658597       5.45723950       6.81351561
Si       5.10308472       4.07183749       3.48755975
Si       5.28220865       1.64354877       9.40950711
Si       5.76308717       2.59448587      15.53811152
Si       4.93180167       1.31365774       5.32734725
22
Lattice="5.475774311995897 0.14817438623458432 -0.04212529993636243 2.9849881538176617 5.231646741237257 0.21982444938024434 0.8630854204255114 0.8766727505665587 16.877921754864367" Properties=species:S:1:pos:R:3 unique_starting_index=40 config_type=initial n_minim_iter=19 stress="0.021670085266517383 -0.005670851677031718 -0.0018837101461572775 -0.005670851677031718 0.013399678945474983 0.005428921649545191 -0.0018837101461572775 0.005428921649545191 0.005853267317275101" pbc="T T T"
Si       6.07984918       2.40742424      13.43236375
Si       1.21517694       2.95739437       5.03764621
Si       4.94227861       0.99623333       7.42501949
Si       4.39486144       3.47682131      14.16026248
Si       3.69470037       2.63466059      15.98275699
Si       6.50620430       4.97457386       6.69460997
Si       5.89497521       2.44044561       2.01545006
Si       5.35027805       3.92241490       9.90743672
Si       4.26573607       2.17465591       0.65399971
Si       4.74772978       4.47999277      16.01355096
Si       5.84863029       2.43980429      11.32239169
Si       4.49928142       3.86828151      12.08897330
Si       2.27860288       2.95936983       0.76722789
Si       0.75735157      -0.27439733       8.72260407
Si       2.00724937       1.35109173      16.19538950
Si       7.10668494       4.81381408       8.99737905
Si       3.39025132       2.62610341       4.26872012
Si       4.28240681       5.44503404       6.82634434
Si       5.10771789       4.10037527       3.49834548
Si       5.29940601       1.65782225       9.41419419
Si       5.77720776       2.61755993      15.53743634
Si       4.94601033       1.32312539       5.32970069
22
Lattice="5.475503181411245 0.14596127204480952 -0.026497902685179 2.982701465258885 5.24848006298134 0.22988022820282183 0.910417127159541 0.8851020697770434 16.854718034037806" Properties=species:S:1:pos:R:3 unique_starting_index=40 config_type=initial n_minim_iter=20 stress="0.01697348404891592 -0.0010507578339534968 -0.004182584175675901 -0.0010507578339534968 0.010409218539027225 0.004271315513439316 -0.004182584175675901 0.004271315513439316 -0.0008040247680215545" pbc="T T T"
Si       6.11169435       2.43302358      13.42326717
Si       1.22223338       2.98393654       5.00312308
Si       4.97658045       0.99073448       7.42721341
Si       4.44536793       3.50304646      14.15467407
Si       3.72990525       2.64897576      15.97131172
Si       6.53008493       4.99565107       6.71060686
Si       5.91313537       2.45312735       2.02166009
Si       5.35916721       3.92720989       9.91033407
Si       4.27532637       2.19225087       0.66939742
Si       4.75672548       4.50508727      16.01250654
Si       5.87720935       2.44792235      11.32281430
Si       4.53279628       3.88563479      12.08715723
Si       2.28545275       2.95769981       0.79468122
Si       0.77773254      -0.27357689       8.72482294
Si       2.03808052       1.36190105      16.16144375
Si       7.11908169       4.83064689       9.00114884
Si       3.40057028       2.63137750       4.26914365
Si       4.30280782       5.38529934       6.84403788
Si       5.12173863       4.12871686       3.50282734
Si       5.33844148       1.66642816       9.42107423
Si       5.81078959       2.64128490      15.53089590
Si       4.98214251       1.33520630       5.33083313
22
Lattice="5.47466787286072 0.13412765727342185 -0.009636161308432433 2.9715849048385636 5.2474289236192035 0.233887755818581 0.9610415111571547 0.8671424121276493 16.84129132737711" Properties=species:S:1:pos:R:3 unique_starting_index=40 config_type=initial n_minim_iter=21 stress="0.014726491261071081 0.002801205528020661 -3.840115336005086e-05 0.002801205528020661 0.003810105881961443 -0.005024092750526815 -3.840115336005086e-05 -0.005024092750526815 -0.0010550265720912775" pbc="T T T"
Si       6.15046948       2.41928699      13.42342234
Si       1.22580567       2.99549621       4.96798643
Si       5.01868721       0.96619763       7.43340166
Si       4.48815124       3.49806368      14.15613631
Si       3.76226867       2.62700971      15.97046258
Si       6.54517919       4.98140780       6.72345650
Si       5.92828082       2.44807198       2.02806925
Si       5.36761899       3.89951762       9.91580724
Si       4.27762269       2.19678920       0.68223718
Si       4.76310361       4.49479142      16.01802993
Si       5.90461129       2.42531866      11.32395323
Si       4.56143032       3.87130791      12.08979613
Si       2.28852031       2.94320812       0.81847437
Si       0.79527824      -0.28237818       8.73390079
Si       2.06866648       1.34647959      16.13612484
Si       7.12711160       4.81247193       9.00669552
Si       3.40787318       2.61912001       4.26954415
Si       4.31068365       5.29628277       6.86190939
Si       5.12914289       4.13319300       3.50445560
Si       5.37753144       1.64448481       9.42785684
Si       5.84921771       2.62469197      15.53151816
Si       5.01835630       1.32796368       5.33987950
