22
Lattice="5.466986890413963 0.5242190148877176 -0.14243948100112344 3.273237790379685 6.106124937471781 0.08822620228804634 0.6330067023442829 0.9448037685529282 16.099209180346207" Properties=species:S:1:pos:R:3 unique_starting_index=40 config_type=initial n_minim_iter=1 energy=-3575.970311721447 free_energy=-3575.970311721447 pbc="T T T"
Si       6.64539013       3.26155529      12.64996374
Si       1.70315953       3.12386997       4.64635576
Si       4.85133439       0.99702193       6.74185744
Si       3.81158175       4.46346394      13.61943222
Si       3.68676921       2.47199182      15.24626895
Si       6.63704857       5.85306841       6.00249392
Si       6.20684877       2.90292255       1.91178815
Si       5.57600467       5.30716252       9.81683410
Si       4.72271321       2.92008872       0.23096079
Si       5.71416232       5.33142133      14.51167817
Si       4.63382967       3.19111742      10.38574497
Si       3.41457214       5.63039089      11.57695772
Si       2.46952668       3.17376912       0.58324671
Si       0.69751180       0.15407338       8.52585278
Si       2.07806572       0.97352865      16.01852167
Si       7.30931432       5.90003804       8.36382254
Si       4.05378105       3.64171093       4.97616203
Si       4.54949937       6.93796075       6.08730273
Si       5.17995158       4.54182830       3.26242088
Si       4.33366184       2.18746762       8.41830877
Si       5.79930547       2.36217022      14.71264849
Si       4.45249278       1.55207549       4.73485178
22
Lattice="5.460906855015197 0.5330977678629786 -0.1421797158057295 3.276581309649922 6.137933643810661 0.09256076807858898 0.630803225007711 0.9637793879552047 16.023240133997902" Properties=species:S:1:pos:R:3 unique_starting_index=40 config_type=initial n_minim_iter=2 stress="-0.006053420863119084 0.002515372368084396 -0.002386251495088549 0.002515372368084396 -0.006100360277845848 0.0014872968016363612 -0.002386251495088549 0.0014872968016363612 -0.010699225301111802" pbc="T T T"
Si       6.63805218       3.29530296      12.59117318
Si       1.70408915       3.14489277       4.62737688
Si       4.84826734       1.01524046       6.71178737
Si       3.81083488       4.50016807      13.55859715
Si       3.68265207       2.50223235      15.17565858
Si       6.63289826       5.89169344       5.97692492
Si       6.20295130       2.92540347       1.90493877
Si       5.57433552       5.34654229       9.77372189
Si       4.71963106       2.93974088       0.23077384
Si       5.71137100       5.37480186      14.44672936
Si       4.63046871       3.22052514      10.33870019
Si       3.41532985       5.66993850      11.52611096
Si       2.46971394       3.19146374       0.58255052
Si       0.69448861       0.16351875       8.48250056
Si       2.07443834       0.99422311      15.94264902
Si       7.30510973       5.94159006       8.32915257
Si       4.05113192       3.66783473       4.95374159
Si       4.55155492       6.98105211       6.06329849
Si       5.17921884       4.57157936       3.25007205
Si       4.32969972       2.20941065       8.37917251
Si       5.79338829       2.39156726      14.64317082
Si       4.44935630       1.56704336       4.71361227
22
Lattice="5.469698386863427 0.5348393064676047 -0.1376167824736 3.28073936684856 6.1712737382903 0.09534201112098042 0.6456160869983574 0.9684799867386568 16.04272726317065" Properties=species:S:1:pos:R:3 unique_starting_index=40 config_type=initial n_minim_iter=3 stress="0.005503406654208361 0.0075982450570907375 -0.0034623417336499865 0.0075982450570907375 0.006123536969528414 0.0019619239145063343 -0.0034623417336499865 0.0019619239145063343 0.0014282320466360466" pbc="T T T"
Si       6.65775937       3.31164066      12.61126226
Si       1.71020664       3.16290146       4.63527253
Si       4.86307363       1.02089321       6.72487607
Si       3.82900805       4.52389332      13.57897656
Si       3.70125327       2.51677244      15.19742008
Si       6.64569934       5.92174447       5.98863606
Si       6.21505823       2.94037636       1.91362788
Si       5.59138609       5.37460871       9.78994512
Si       4.72590109       2.95558055       0.23379581
Si       5.73242223       5.40248888      14.46932297
Si       4.64668735       3.23754382      10.35550149
Si       3.42977786       5.70004417      11.54248016
Si       2.47285007       3.20825672       0.58492473
Si       0.70312371       0.16439559       8.49115685
Si       2.09204123       0.99866016      15.96316841
Si       7.32175904       5.97075363       8.34697596
Si       4.05956571       3.68736372       4.96128381
Si       4.56404603       7.01986504       6.07341988
Si       5.19061579       4.59573052       3.25839262
Si       4.34350988       2.22033076       8.39337438
Si       5.81618306       2.40150183      14.66477820
Si       4.46194338       1.57288365       4.72285442
22
Lattice="5.443753846788099 0.4836138318032839 -0.09895410317531651 3.205674323372041 6.204565055008582 0.10498167405477656 0.7501056257703895 0.9356178475411495 16.017442898261958" Properties=species:S:1:pos:R:3 unique_starting_index=40 config_type=initial n_minim_iter=4 stress="-0.0021196563330457122 -0.0011199268762124663 0.010819959649080639 -0.0011199268762124663 0.00861176431273103 -0.0025317873791032065 0.010819959649080639 -0.0025317873791032065 0.012790339705267717" pbc="T T T"
Si       6.68353225       3.24912976      12.62759900
Si       1.70460254       3.17497424       4.63789685
Si       4.88216734       0.96671819       6.75237449
Si       3.87294753       4.50262477      13.57900941
Si       3.77117198       2.48103952      15.19585654
Si       6.59830571       5.90263781       6.01061036
Si       6.18056299       2.90412338       1.95448269
Si       5.58914744       5.35204068       9.80123375
Si       4.67450919       2.94095154       0.25399760
Si       5.76218964       5.36640478      14.47726183
Si       4.67338617       3.20356963      10.36712895
Si       3.44243098       5.69900197      11.53418990
Si       2.43110012       3.21428479       0.59253035
Si       0.76287014       0.14100066       8.47296661
Si       2.19304461       0.95059166      15.94766880
Si       7.28952691       5.93364805       8.37748398
Si       4.03381780       3.67450755       4.96480578
Si       4.52461192       7.04180035       6.07620272
Si       5.15349870       4.58446953       3.28049737
Si       4.36578750       2.17804899       8.40671042
Si       5.88270364       2.32506701      14.67275514
Si       4.47146788       1.52436000       4.74166847
22
Lattice="5.453616631231432 0.42765083552219363 -0.10668940284914774 3.148330444631369 6.208089969431335 0.09421119370312286 0.7176916172616614 0.9206084780314827 15.919772591318901" Properties=species:S:1:pos:R:3 unique_starting_index=40 config_type=initial n_minim_iter=5 stress="-0.0018649361117878845 -0.008476908523844178 -0.004999552443977984 -0.008476908523844178 0.007858668377091151 -0.002324417424120107 -0.004999552443977984 -0.002324417424120107 -0.0007122477209302163" pbc="T T T"
Si       6.63714706       3.18682185      12.53592662
Si       1.66719832       3.18041539       4.61203326
Si       4.86825191       0.91362920       6.70507230
Si       3.82252492       4.47776245      13.49606303
Si       3.72944544       2.45727213      15.10206406
Si       6.53859139       5.86375358       5.95770213
Si       6.16846577       2.85492621       1.93867972
Si       5.53467012       5.31588766       9.72954245
Si       4.64875113       2.91202760       0.23374830
Si       5.69999322       5.32280744      14.38268688
Si       4.63812980       3.16854050      10.29985088
Si       3.37380372       5.68586038      11.45517557
Si       2.39762048       3.20471682       0.57988698
Si       0.75344835       0.12900507       8.41069590
Si       2.16752669       0.91941684      15.84708061
Si       7.22642529       5.87489586       8.31952273
Si       3.98602501       3.64905499       4.91463805
Si       4.46231286       7.04029902       6.02100913
Si       5.12139621       4.55456563       3.24962009
Si       4.34064975       2.13664840       8.35233223
Si       5.85887092       2.25308563      14.57054345
Si       4.47085296       1.47032921       4.70671775
22
Lattice="5.486546114290906 0.4209336264474559 -0.06789516442863643 3.167761239601971 6.14894354040301 0.12952190760689425 0.8304160150121972 0.9470492662061465 15.857071368085064" Properties=species:S:1:pos:R:3 unique_starting_index=40 config_type=initial n_minim_iter=6 stress="0.026193144328285973 -0.002505844260921962 0.0050487421676606355 -0.002505844260921962 0.003391742787459003 -0.00023874306312834812 0.0050487421676606355 -0.00023874306312834812 -0.0006931362058977041" pbc="T T T"
Si       6.74688943       3.18251149      12.52779706
Si       1.70519850       3.17220073       4.62084128
Si       4.93961690       0.91792922       6.71448138
Si       3.94864725       4.46314013      13.48407477
Si       3.85062958       2.48599956      15.07313101
Si       6.60700435       5.81806202       5.98416676
Si       6.22539996       2.83232583       1.98944916
Si       5.63567413       5.28420649       9.73643382
Si       4.67014850       2.88800015       0.25759271
Si       5.83557428       5.29940070      14.37920456
Si       4.73984149       3.16620748      10.30074992
Si       3.47262830       5.65367747      11.44174213
Si       2.40966821       3.17133225       0.59707558
Si       0.82278972       0.14811320       8.36863124
Si       2.29197491       0.94417334      15.79240116
Si       7.31831075       5.82360479       8.35476579
Si       4.02591000       3.61989749       4.91296208
Si       4.53867873       6.99751858       6.03521577
Si       5.18723319       4.51751673       3.28022885
Si       4.42333436       2.13104095       8.35565204
Si       6.00492090       2.24633475      14.54772729
Si       4.54529567       1.45228228       4.71840653
22
Lattice="5.425933787218694 0.4258123139815132 -0.048903088705811046 3.1457449662868266 6.067868602375365 0.158091117799934 0.8794227733828125 0.9799410696990403 15.949482695122216" Properties=species:S:1:pos:R:3 unique_starting_index=40 config_type=initial n_minim_iter=7 stress="-0.007796206354636241 -0.00102321669661129 0.0012833015766666388 -0.00102321669661129 -0.0044794495431598495 8.247272925424074e-05 0.0012833015766666388 8.247272925424074e-05 -0.00686013779283434" pbc="T T T"
Si       6.69576749       3.18702225      12.61701974
Si       1.70286753       3.16305810       4.67794505
Si       4.91219202       0.93059991       6.76998974
Si       3.98013776       4.44359733      13.60113463
Si       3.86025021       2.53242042      15.18447563
Si       6.55003518       5.76529384       6.04750621
Si       6.17764931       2.81419255       2.04591105
Si       5.61896869       5.24613994       9.82257577
Si       4.61178946       2.86354247       0.26122198
Si       5.83785012       5.27207864      14.50576842
Si       4.73558664       3.17009543      10.39419928
Si       3.48749651       5.60705491      11.53327722
Si       2.38168891       3.12754276       0.61118433
Si       0.85385563       0.17474162       8.39878520
Si       2.32895163       0.97840057      15.88560551
Si       7.26364449       5.75820719       8.45768359
Si       3.97676921       3.58108953       4.93751320
Si       4.53100929       6.94159965       6.09612821
Si       5.17162090       4.47412184       3.32666870
Si       4.40600719       2.13189405       8.43419352
Si       6.01112612       2.24243458      14.64764422
Si       4.53827653       1.43553962       4.75812053
22
Lattice="5.435530099460867 0.45562948831799227 -0.044752984976956504 3.1825500677743057 6.0989838424303295 0.18392423825733215 0.8917298278386144 1.049796157271532 15.969439057241754" Properties=species:S:1:pos:R:3 unique_starting_index=40 config_type=initial n_minim_iter=8 stress="0.0011088926448082573 -0.0033680296045817074 -0.001241504588053552 -0.0033680296045817074 0.0008739577001352252 0.014909025556330802 -0.001241504588053552 0.014909025556330802 0.008760515260079099" pbc="T T T"
Si       6.69789917       3.27929596      12.63048078
Si       1.71201409       3.21741106       4.71246928
Si       4.92433600       0.96179674       6.79093674
Si       4.02919771       4.52702456      13.64597642
Si       3.88466940       2.64755606      15.21665285
Si       6.58935620       5.84709658       6.08203985
Si       6.20631729       2.86370989       2.07488899
Si       5.65290575       5.32909870       9.85584679
Si       4.62744692       2.89375698       0.26260443
Si       5.88899066       5.37664021      14.55303281
Si       4.76759480       3.25124196      10.43374569
Si       3.52896145       5.67680709      11.57091485
Si       2.39309607       3.14908300       0.62086832
Si       0.87035745       0.21432151       8.39166820
Si       2.34689162       1.05282462      15.90390044
Si       7.30468464       5.83765209       8.48794403
Si       3.97681586       3.61374559       4.93268730
Si       4.56491173       7.02082775       6.13245076
Si       5.22610376       4.52859382       3.34803457
Si       4.42578821       2.19175120       8.46416215
Si       6.04568816       2.31645711      14.67138339
Si       4.57769209       1.47026983       4.76001776
22
Lattice="5.451330489029541 0.5002509968660148 -0.04569828442105631 3.236919481990356 6.138261579107979 0.13988780312890614 0.9083356877597472 0.93703760000714 15.932455562764089" Properties=species:S:1:pos:R:3 unique_starting_index=40 config_type=initial n_minim_iter=9 stress="0.008532668692513618 0.005077810752887892 -3.140231207925821e-05 0.005077810752887892 -0.007379440542089767 -0.006579588440672874 -3.140231207925821e-05 -0.006579588440672874 0.011653437067243696" pbc="T T T"
Si       6.71444578       3.24302594      12.57034893
Si       1.73010121       3.22252121       4.69702726
Si       4.94244324       0.93281332       6.77854642
Si       4.09364580       4.46469956      13.60025588
Si       3.92117083       2.59660490      15.17553488
Si       6.65116521       5.87870831       6.03406013
Si       6.24735116       2.90595366       2.06482773
Si       5.70488597       5.31435597       9.80071460
Si       4.65523762       2.93232514       0.23174778
Si       5.95980569       5.33077538      14.49711439
Si       4.81265702       3.22454566      10.40719850
Si       3.58804468       5.62313654      11.51155407
Si       2.41446212       3.17099256       0.59307769
Si       0.89000399       0.15863031       8.36044208
Si       2.37078590       0.94919678      15.86554011
Si       7.36623974       5.83762075       8.43001939
Si       3.98988553       3.59957062       4.87275306
Si       4.61778470       7.04244616       6.07260234
Si       5.29662194       4.55977289       3.30862740
Si       4.45684722       2.16204992       8.44091792
Si       6.09052004       2.23748523      14.62805722
Si       4.62556752       1.46279333       4.73362473
22
Lattice="5.463567448798548 0.5225214417281147 -0.0196157558561248 3.2646077976477796 6.193548873944533 0.1540169588935111 0.9877034311011484 0.9442845632423956 15.85527223741316" Properties=species:S:1:pos:R:3 unique_starting_index=40 config_type=initial n_minim_iter=10 stress="-0.0013341553736775707 0.0015631045518218185 0.0042808533252966735 0.0015631045518218185 -0.0050034827171350875 0.0006404839688230766 0.0042808533252966735 0.0006404839688230766 -0.004898809549286608" pbc="T T T"
Si       6.76738158       3.28605946      12.52100065
Si       1.75162284       3.27041062       4.69691530
Si       4.98403758       0.94400613       6.75728995
Si       4.19468955       4.50833381      13.55971290
Si       4.01231341       2.64778738      15.11671800
Si       6.71314244       5.95509199       6.03861917
Si       6.28230653       2.94887201       2.09452496
Si       5.77243442       5.37330061       9.77733822
Si       4.67288391       2.96381462       0.24374887
Si       6.06827203       5.39426478      14.45798346
Si       4.88707357       3.26979876      10.39215442
Si       3.67074964       5.66592505      11.47241428
Si       2.42231041       3.20757300       0.60123239
Si       0.94833705       0.16117981       8.31399410
Si       2.45769316       0.95895839      15.79370995
Si       7.43703460       5.89562749       8.41948443
Si       4.00864165       3.61931434       4.84002584
Si       4.65685213       7.12043779       6.06749055
Si       5.35970911       4.61449038       3.31556586
Si       4.51373759       2.18408282       8.42334987
Si       6.18254396       2.25324084      14.58134509
Si       4.68740781       1.47741976       4.73022920
22
Lattice="5.475876147121457 0.5384574713179355 -0.03579979383202936 3.2851714177733844 6.238218516489763 0.15169239047724115 0.9419953725581302 0.971490520482975 15.869866692947861" Properties=species:S:1:pos:R:3 unique_starting_index=40 config_type=initial n_minim_iter=11 stress="0.006286861955079281 0.0011178620157145745 0.000270721408459451 0.0011178620157145745 0.0043196342493253175 -0.0039047297480060503 0.000270721408459451 -0.0039047297480060503 0.007353702646367322" pbc="T T T"
Si       6.71839715       3.33499339      12.49861540
Si       1.72947593       3.31902740       4.71610146
Si       4.96944876       0.96633641       6.75424022
Si       4.18543079       4.56325984      13.57424968
Si       3.98652969       2.70015855      15.11573662
Si       6.72221357       6.02558674       6.03501519
Si       6.29672420       2.98311483       2.08900415
Si       5.75619865       5.43310515       9.77682384
Si       4.69008233       2.98434776       0.22853789
Si       6.05898469       5.46658006      14.46553958
Si       4.87820341       3.32063403      10.40850899
Si       3.65891257       5.71238061      11.48429675
Si       2.42017584       3.24898351       0.60590910
Si       0.94112315       0.17338609       8.31481686
Si       2.42170566       0.98831811      15.80166882
Si       7.43922762       5.95203230       8.40945315
Si       3.99019206       3.63402714       4.80953279
Si       4.64255761       7.19294344       6.07253554
Si       5.39111561       4.66311410       3.30930931
Si       4.50541898       2.20236392       8.41587730
Si       6.15398506       2.28275496      14.58069453
Si       4.70975373       1.49687031       4.71752342
22
Lattice="5.476581383252581 0.5503936480251104 -0.0421899633742624 3.2981743445814993 6.255667453732478 0.19104583121632288 0.9140290601534153 1.0940342303250026 15.8874263735395" Properties=species:S:1:pos:R:3 unique_starting_index=40 config_type=initial n_minim_iter=12 stress="0.009699441765033104 0.000479909111206226 0.004916380144080452 0.000479909111206226 0.003866143677605063 -0.0005262444055262444 0.004916380144080452 -0.0005262444055262444 0.006460075379297091" pbc="T T T"
Si       6.60607382       3.44094402      12.46321105
Si       1.66902475       3.42043276       4.79026294
Si       4.94747538       1.02246401       6.76807356
Si       4.21259672       4.69258604      13.63131173
Si       3.97574183       2.87160570      15.13980048
Si       6.70542678       6.11421106       6.06818108
Si       6.30335115       3.01268426       2.12240998
Si       5.72741074       5.53008795       9.81596102
Si       4.70153335       2.97601103       0.23152059
Si       6.07442087       5.61651016      14.51629725
Si       4.88719248       3.43450563      10.48184413
Si       3.65979797       5.78316226      11.54121275
Si       2.40239476       3.28414621       0.62561809
Si       0.96276796       0.23676639       8.29983232
Si       2.42001417       1.11436898      15.80994767
Si       7.43489919       6.01855421       8.44319938
Si       3.93779346       3.62029563       4.74147203
Si       4.61254217       7.29860747       6.12260061
Si       5.44803770       4.71710193       3.34486223
Si       4.50014350       2.24821376       8.43722116
Si       6.12112816       2.36513054      14.59564085
Si       4.77333549       1.52543740       4.71461559
22
Lattice="5.453341562282641 0.5678632691637808 -0.04049936926926497 3.304064196680809 6.2640232326799765 0.23196579695042646 0.9093153680021274 1.2059580426384402 15.91474511847253" Properties=species:S:1:pos:R:3 unique_starting_index=40 config_type=initial n_minim_iter=13 stress="0.005343628149188284 0.002816857845590512 -0.005777356564010645 0.002816857845590512 0.0035165127774504923 0.0005703730942522794 -0.005777356564010645 0.0005703730942522794 0.004686055831101311" pbc="T T T"
Si       6.48848313       3.53827618      12.44361600
Si       1.60844454       3.50783534       4.87026237
Si       4.91552123       1.08350195       6.78829439
Si       4.23690102       4.81303351      13.68514302
Si       3.96704860       3.01569236      15.17744513
Si       6.68204629       6.19663164       6.11299633
Si       6.28276642       3.03945295       2.15543924
Si       5.70343284       5.61396805       9.86718107
Si       4.70911567       2.96569456       0.25381409
Si       6.09753706       5.75393749      14.57933049
Si       4.90082524       3.53667812      10.57248063
Si       3.66967917       5.83598289      11.60879091
Si       2.39296581       3.31285491       0.64495258
Si       0.97424995       0.29558865       8.29090854
Si       2.44071408       1.23952088      15.82829357
Si       7.41869134       6.07405865       8.49694786
Si       3.89632595       3.59891371       4.67257775
Si       4.59999605       7.39027214       6.17672731
Si       5.48014260       4.76338296       3.39048460
Si       4.49185337       2.29610038       8.47613292
Si       6.07257336       2.45814088      14.62652167
Si       4.80794241       1.56224144       4.72177569
22
Lattice="5.4416967490323715 0.5327313717092702 -0.005591706026766014 3.2655746625673197 6.204133170766278 0.2862972200415192 0.9978370597121926 1.287938778446256 15.953365099610204" Properties=species:S:1:pos:R:3 unique_starting_index=40 config_type=initial n_minim_iter=14 stress="-0.003943452116557802 -0.0014450560956769277 0.0013657894877021554 -0.0014450560956769277 -0.0018576632482041324 0.003978585013872124 0.0013657894877021554 0.003978585013872124 -0.011026377484057248" pbc="T T T"
Si       6.48221234       3.54565869      12.49522425
Si       1.57923632       3.52520030       4.94365055
Si       4.94266604       1.10756755       6.83305204
Si       4.29726989       4.85361408      13.74868389
Si       4.03213733       3.06198362      15.24341514
Si       6.67070350       6.16829336       6.19520620
Si       6.25802692       2.98618408       2.20386889
Si       5.72035016       5.60037403       9.95108155
Si       4.71681428       2.90504943       0.32000296
Si       6.16725924       5.77473212      14.67135280
Si       4.95716974       3.55038440      10.67570239
Si       3.70797859       5.81755409      11.69309653
Si       2.38977733       3.28922522       0.67221782
Si       1.01113306       0.33824936       8.30112579
Si       2.55032199       1.32866401      15.86790912
Si       7.42828182       6.02426448       8.60127339
Si       3.89273698       3.54057447       4.65256418
Si       4.60066497       7.37011025       6.25524694
Si       5.47368446       4.72265333       3.46190541
Si       4.52973037       2.29310129       8.53909942
Si       6.10340287       2.49861730      14.69952634
Si       4.82918385       1.55365433       4.76951248
22
Lattice="5.398804252145079 0.5505708937228609 0.018582517279792075 3.260117067468684 6.215300865908638 0.32387043240445706 1.0629227462179567 1.3521983843100873 16.02791756699196" Properties=species:S:1:pos:R:3 unique_starting_index=40 config_type=initial n_minim_iter=15 stress="-0.005276512469052464 0.00047493081194105593 -0.0007484132670155652 0.00047493081194105593 0.0009958613286130714 0.002109831457667303 -0.0007484132670155652 0.002109831457667303 -0.0030199445818425534" pbc="T T T"
Si       6.48033614       3.61132476      12.58491467
Si       1.59103944       3.55063791       5.00285144
Si       4.92476894       1.16260160       6.88282481
Si       4.33786599       4.92894723      13.83025495
Si       4.07079447       3.12380327      15.33499449
Si       6.66646805       6.22277979       6.27421372
Si       6.21453893       3.00748464       2.23421939
Si       5.73442269       5.65615158      10.03727409
Si       4.70985920       2.91700440       0.37109875
Si       6.20710203       5.84922068      14.77613046
Si       4.98075614       3.60158736      10.76770646
Si       3.74805912       5.85904421      11.78123681
Si       2.40482052       3.29935625       0.69175220
Si       1.02564647       0.37233022       8.34140597
Si       2.61300513       1.41029872      15.94222424
Si       7.43000366       6.07449547       8.69648202
Si       3.89532785       3.55980117       4.66237625
Si       4.63429306       7.41617398       6.32541319
Si       5.44955389       4.75086721       3.51876230
Si       4.54183171       2.33903742       8.60711494
Si       6.09897637       2.58918700      14.79389758
Si       4.80773509       1.58950378       4.82059940
22
Lattice="5.4044543746343 0.5274541865603305 0.03281584045611937 3.243024808399398 6.168711908420717 0.34870611624985715 1.10021796428768 1.3875360855541223 16.10890706939345" Properties=species:S:1:pos:R:3 unique_starting_index=40 config_type=initial n_minim_iter=16 stress="-0.007740187640318765 -6.920401141980115e-05 -0.0009542030131393623 -6.920401141980115e-05 0.0023886634153904383 -4.264485904320211e-05 -0.0009542030131393623 -4.264485904320211e-05 -0.0003314182773555926" pbc="T T T"
Si       6.50088420       3.60129974      12.67312202
Si       1.59171672       3.53831703       5.06038503
Si       4.94845456       1.17392963       6.93254579
Si       4.36188181       4.93215317      13.91044553
Si       4.10320200       3.12818667      15.42644924
Si       6.67528730       6.19110739       6.34072292
Si       6.20573241       2.96645833       2.24789791
Si       5.74649769       5.63193938      10.11315640
Si       4.72655022       2.88213968       0.40959067
Si       6.23727114       5.83140377      14.87345637
Si       5.00602219       3.58578856      10.85074999
Si       3.76184150       5.83257057      11.85933278
Si       2.42298270       3.27046334       0.70277751
Si       1.02467380       0.38928858       8.38178212
Si       2.66024440       1.45221652      16.01804427
Si       7.44811279       6.03217604       8.77603066
Si       3.90136376       3.53346382       4.66273680
Si       4.64184156       7.37761565       6.38593640
Si       5.43533413       4.70890909       3.56013076
Si       4.56595066       2.33481646       8.66862274
Si       6.10691248       2.61224656      14.88407015
Si       4.81162510       1.57805158       4.86303422
22
Lattice="5.421319500100607 0.5135038206899237 0.04290618459839327 3.241866044606822 6.137779920897157 0.39461189765021665 1.1219932407496749 1.4906557286784456 16.201300613215825" Properties=species:S:1:pos:R:3 unique_starting_index=40 config_type=initial n_minim_iter=17 stress="-0.00991476048984114 -0.0007615672438615223 0.003990789712266909 -0.0007615672438615223 -0.0039765245138231545 -0.0008199312084410768 0.003990789712266909 -0.0008199312084410768 -0.0016548943418291647" pbc="T T T"
Si       6.51256804       3.65647252      12.77530926
Si       1.59629207       3.56382872       5.15454058
Si       4.97025489       1.22565541       6.99163095
Si       4.39713463       5.00480935      14.02250872
Si       4.12820802       3.22037042      15.53741723
Si       6.70276381       6.21422658       6.43700666
Si       6.20588487       2.94650407       2.25852987
Si       5.76087347       5.66986418      10.20773563
Si       4.75789525       2.86061714       0.45323519
Si       6.27176209       5.88607423      14.99802059
Si       5.03504775       3.62062063      10.95977500
Si       3.77728611       5.85703580      11.95641804
Si       2.46342574       3.25011969       0.72137803
Si       1.01902486       0.43855774       8.43174642
Si       2.69734439       1.57151880      16.09294092
Si       7.48433691       6.04161730       8.87145822
Si       3.89629338       3.53195535       4.63497241
Si       4.65517016       7.38678881       6.47583624
Si       5.43870795       4.69071882       3.61268654
Si       4.59552181       2.37309147       8.73725046
Si       6.10785098       2.70477519      14.98147361
Si       4.82940725       1.58934272       4.90649820
22
Lattice="5.4391154989943615 0.5009740338934404 0.03713667888592251 3.239766003534283 6.125250629547965 0.39965220890686676 1.1036092995118962 1.5112624058635813 16.22766499469691" Properties=species:S:1:pos:R:3 unique_starting_index=40 config_type=initial n_minim_iter=18 stress="0.005227243848667607 -0.003916858602395029 0.0014138876020460274 -0.003916858602395029 -0.005060480545381554 -0.0039702754805521585 0.0014138876020460274 -0.0039702754805521585 0.002010265771531882" pbc="T T T"
Si       6.51091018       3.65779947      12.79927941
Si       1.59261513       3.56703731       5.17903375
Si       4.97883171       1.23109026       7.00212321
Si       4.39024750       5.01180890      14.05050391
Si       4.10984138       3.23787797      15.56480498
Si       6.70849882       6.20881818       6.45400087
Si       6.21388007       2.93182638       2.24969011
Si       5.75481924       5.66913603      10.22370100
Si       4.77076971       2.84853745       0.45409393
Si       6.26298076       5.88449052      15.02420313
Si       5.03154152       3.61660271      10.98124965
Si       3.76297835       5.85392664      11.97493405
Si       2.47703786       3.24066738       0.72266151
Si       1.00628417       0.44656816       8.44730403
Si       2.68498151       1.59470842      16.10955149
Si       7.49123553       6.02953054       8.88435686
Si       3.88934974       3.52614878       4.61779806
Si       4.64565626       7.37903605       6.49300810
Si       5.44054985       4.67406947       3.61606561
Si       4.59922238       2.37447469       8.74910302
Si       6.10601720       2.71306917      14.99852556
Si       4.83598860       1.58342175       4.91092356
22
Lattice="5.453748444850354 0.5445564831739406 0.014533439151892483 3.2940019132514466 6.157385521537243 0.4089890520289638 1.0420693843706093 1.5782334765427575 16.312783732873914" Properties=species:S:1:pos:R:3 unique_starting_index=40 config_type=initial n_minim_iter=19 stress="0.006890902679503514 -0.0009686106698008487 -0.0040857526039939475 -0.0009686106698008487 0.004238098839331095 0.000617892235132715 -0.0040857526039939475 0.000617892235132715 0.008471109361549786" pbc="T T T"
Si       6.50746458       3.76059384      12.88724823
Si       1.62470355       3.60583960       5.25147675
Si       4.96350610       1.31933517       7.02714806
Si       4.38764412       5.09694505      14.14078953
Si       4.07048259       3.33575602      15.63152857
Si       6.75395254       6.30546860       6.50810837
Si       6.22442682       2.99091582       2.20906418
Si       5.75745316       5.76385906      10.26587341
Si       4.80004495       2.88558572       0.44580386
Si       6.24153860       5.97649659      15.09886282
Si       5.00920794       3.66919807      11.03696537
Si       3.75673749       5.90659019      12.02222777
Si       2.54917801       3.27327307       0.74092753
Si       0.95605816       0.47321254       8.51520450
Si       2.61972532       1.69446159      16.15458396
Si       7.53509083       6.12535712       8.90128202
Si       3.88127762       3.57388899       4.55843096
Si       4.67163412       7.43162414       6.54114130
Si       5.46157192       4.70636370       3.61684482
Si       4.59869818       2.45415555       8.78437078
Si       6.06149030       2.83205729      15.05515901
Si       4.82479777       1.65145385       4.93395840
22
Lattice="5.45149190296963 0.5737638384105841 0.02460606477139874 3.3234303685830424 6.180677883545961 0.4177580186579068 1.0758508477374007 1.5896615105178327 16.32925030559017" Properties=species:S:1:pos:R:3 unique_starting_index=40 config_type=initial n_minim_iter=20 stress="0.00048360864304215024 0.0033048975259231386 -0.0021205614145921865 0.0033048975259231386 0.005481618172665283 -0.004220596100593382 -0.0021205614145921865 -0.004220596100593382 0.004198555400124243" pbc="T T T"
Si       6.52479967       3.80324775      12.91926168
Si       1.65075086       3.64104326       5.29430521
Si       4.97016151       1.35521397       7.04693327
Si       4.45122820       5.12592865      14.18164031
Si       4.11769825       3.39338199      15.65033454
Si       6.78840898       6.35957402       6.54205379
Si       6.24218773       3.03252384       2.22135729
Si       5.79571031       5.80521925      10.28242193
Si       4.80115866       2.90213716       0.43852773
Si       6.29321860       6.01863014      15.13550199
Si       5.04095638       3.69571147      11.07678557
Si       3.80365369       5.91115782      12.03613443
Si       2.57256747       3.30060571       0.75728310
Si       0.97209970       0.47613025       8.52442410
Si       2.65201769       1.72345822      16.15046035
Si       7.57852860       6.16283839       8.91837937
Si       3.86446308       3.57684879       4.50002007
Si       4.70598044       7.47056770       6.56250980
Si       5.50522984       4.72656205       3.62833209
Si       4.62833862       2.48700331       8.81118835
Si       6.09533846       2.86048885      15.07666382
Si       4.85465252       1.67981105       4.95568896
22
Lattice="5.453000671854927 0.5848722565475959 0.03465183632005767 3.3390331489743508 6.166536788479847 0.4474753153731621 1.1028525207971034 1.6522337243019163 16.380079072866604" Properties=species:S:1:pos:R:3 unique_starting_index=40 config_type=initial n_minim_iter=21 stress="0.0030168773967804083 0.001208392410057184 0.0014751209414323153 0.001208392410057184 0.0018436182614490295 0.004729514152400389 0.0014751209414323153 0.004729514152400389 0.0006538762284307756" pbc="T T T"
Si       6.54287086       3.86005075      12.99114423
Si       1.66958416       3.67087865       5.35283694
Si       4.97480780       1.40294307       7.08759411
Si       4.49682757       5.16820811      14.26022837
Si       4.15278357       3.48148983      15.70256182
Si       6.81146947       6.38612220       6.60734635
Si       6.26152718       3.05197509       2.24508028
Si       5.82711388       5.83905732      10.33321939
Si       4.79967084       2.88842093       0.44279447
Si       6.33071722       6.07610394      15.21588290
Si       5.06206598       3.73148686      11.14462507
Si       3.83593337       5.91889525      12.09289128
Si       2.58653617       3.31075137       0.78926041
Si       0.98040084       0.50665215       8.54758446
Si       2.67867887       1.79994169      16.17803434
Si       7.60884992       6.18590747       8.97099206
Si       3.83791405       3.56605639       4.46206934
Si       4.72628937       7.48453244       6.62220609
Si       5.54245080       4.72078135       3.66282841
Si       4.65524110       2.52867380       8.85922286
Si       6.12653538       2.91508255      15.13208476
Si       4.87968137       1.70767160       4.99208547
