14
Lattice="5.515137700755403 -9.842849344137905e-42 2.123768798812238e-25 2.439823987463355e-41 6.845716794046774 -3.1631641610800093e-16 -6.6145767165622425e-25 7.936956222521082e-16 17.17715292006064" Properties=species:S:1:pos:R:3 unique_starting_index=9 config_type=initial n_minim_iter=1 energy=-2274.3398309948634 free_energy=-2274.3398309948634 pbc="T T T"
Si       1.93044888       1.65276483       7.92861867
Si       3.58468882       1.65276483       9.24853425
Si       4.68801773       5.19295196       0.65995779
Si       0.82711997       5.19295196      16.51719513
Si       3.58468882       5.19295196       9.24853425
Si       1.93044888       5.19295196       7.92861867
Si       0.82711997       1.65276483      16.51719513
Si       4.68801773       1.65276483       0.65995779
Si       0.17624873       3.42285840       2.04256062
Si       5.33888897       3.42285840      15.13459230
Si       2.93381758       3.42285840       6.54601584
Si       2.58132012       3.42285840      10.63113708
Si       0.00000000       3.42285840      -0.00000000
Si       2.75756885       3.42285840       8.58857646
14
Lattice="5.519228918606878 -1.0831887613415538e-41 2.112202127774158e-25 2.428298504422831e-41 6.8146836278565806 -3.4452595528005305e-16 -6.661263471679007e-25 7.19412240863467e-16 17.192103582125444" Properties=species:S:1:pos:R:3 unique_starting_index=9 config_type=initial n_minim_iter=2 stress="0.0035556152631173238 -2.2118731332105e-17 -9.753680280951134e-15 -2.2118731332105e-17 -0.007080537998982086 1.461227024583412e-17 -9.753680280951134e-15 1.461227024583412e-17 0.001997272996861844" pbc="T T T"
Si       1.93340775       1.64488583       7.93316228
Si       3.58582117       1.64488583       9.25894131
Si       4.69302221       5.16979780       0.66288952
Si       0.82620671       5.16979780      16.52921407
Si       3.58582117       5.16979780       9.25894131
Si       1.93340775       5.16979780       7.93316228
Si       0.82620671       1.64488583      16.52921407
Si       4.69302221       1.64488583       0.66288952
Si       0.17277324       3.40734181       2.04523887
Si       5.34645568       3.40734181      15.14686471
Si       2.93238770       3.40734181       6.55081292
Si       2.58684122       3.40734181      10.64129066
Si       0.00000000       3.40734181      -0.00000000
Si       2.75961446       3.40734181       8.59605179
14
Lattice="5.454324178690171 -1.0687697911679231e-41 2.133422246351621e-25 2.3951574777184076e-41 6.784848099071411 -3.4366123769358654e-16 -6.50080087896259e-25 7.162625649881343e-16 17.148953525974424" Properties=species:S:1:pos:R:3 unique_starting_index=9 config_type=initial n_minim_iter=3 stress="-0.005381580579858421 -5.567237945217009e-17 -1.2087765010043889e-15 -5.567237945217009e-17 -0.02108372561355894 1.9717045570698395e-17 -1.2087765010043889e-15 1.9717045570698395e-17 -0.006639090509097237" pbc="T T T"
Si       1.92944470       1.63249615       7.89009148
Si       3.52487948       1.63249615       9.25886205
Si       4.65660679       5.15235195       0.68438528
Si       0.79771739       5.15235195      16.46456824
Si       3.52487948       5.15235195       9.25886205
Si       1.92944470       5.15235195       7.89009148
Si       0.79771739       1.63249615      16.46456824
Si       4.65660679       1.63249615       0.68438528
Si       0.13242808       3.39242405       2.05004754
Si       5.32189610       3.39242405      15.09890598
Si       2.85959017       3.39242405       6.52442922
Si       2.59473401       3.39242405      10.62452430
Si       0.00000000       3.39242405      -0.00000000
Si       2.72716209       3.39242405       8.57447676
14
Lattice="5.385048785639377 -1.0620394434473664e-41 2.001609897685451e-25 2.510492691664917e-41 6.82452688024918 -3.558504333653195e-16 -6.915291464064594e-25 7.010907508281524e-16 17.371268127711357" Properties=species:S:1:pos:R:3 unique_starting_index=9 config_type=initial n_minim_iter=4 stress="0.019380780061361264 1.0057455160165548e-19 -1.2026132117990327e-14 1.0057455160165548e-19 -0.0017752318351946501 5.037430577987296e-17 -1.2026132117990327e-14 5.037430577987296e-17 0.020436460591551023" pbc="T T T"
Si       1.95765815       1.62585654       7.91947426
Si       3.42739064       1.62585654       9.45179387
Si       4.65018254       5.19867035       0.76615981
Si       0.73486625       5.19867035      16.60510832
Si       3.42739064       5.19867035       9.45179387
Si       1.95765815       5.19867035       7.91947426
Si       0.73486625       1.62585654      16.60510832
Si       4.65018254       1.62585654       0.76615981
Si       0.01746830       3.41226344       2.10764095
Si       5.36758049       3.41226344      15.26362718
Si       2.70999269       3.41226344       6.57799312
Si       2.67505609       3.41226344      10.79327501
Si       0.00000000       3.41226344      -0.00000000
Si       2.69252439       3.41226344       8.68563406
14
Lattice="5.314734008353044 -1.0232922695176686e-41 2.5052456504503604e-25 2.177997736873255e-41 6.8681771761884 -3.4656649155162454e-16 -5.081456775323731e-25 7.055749911705071e-16 16.91806130988462" Properties=species:S:1:pos:R:3 unique_starting_index=9 config_type=initial n_minim_iter=5 stress="0.011924039222919116 -1.7355253423130524e-17 -1.4661167822999857e-14 -1.7355253423130524e-17 0.010510259517920046 4.053578973538242e-17 -1.4661167822999857e-14 4.053578973538242e-17 0.005145142753670156" pbc="T T T"
Si       1.95985765       1.62657464       7.66073600
Si       3.35487636       1.62657464       9.25732531
Si       4.61722466       5.24160253       0.79829465
Si       0.69750935       5.24160253      16.11976666
Si       3.35487636       5.24160253       9.25732531
Si       1.95985765       5.24160253       7.66073600
Si       0.69750935       1.62657464      16.11976666
Si       4.61722466       1.62657464       0.79829465
Si      -0.05775692       3.43408859       2.07090157
Si       5.37249093       3.43408859      14.84715974
Si       2.59961008       3.43408859       6.38812909
Si       2.71512393       3.43408859      10.52993222
Si       0.00000000       3.43408859      -0.00000000
Si       2.65736700       3.43408859       8.45903065
14
Lattice="5.268645485539421 -1.0288995982867702e-41 2.4845660407502153e-25 2.2062480974130215e-41 6.86566770054263 -3.563132615089734e-16 -5.115791905328253e-25 6.830858774018758e-16 16.96135091893684" Properties=species:S:1:pos:R:3 unique_starting_index=9 config_type=initial n_minim_iter=6 stress="0.004685044147856368 -1.6549661918241606e-17 -1.405154812307031e-14 -1.6549661918241606e-17 0.008961210521091516 5.263243762117171e-17 -1.405154812307031e-14 5.263243762117171e-17 0.009400859200636952" pbc="T T T"
Si       1.94823919       1.62521492       7.67139716
Si       3.32040629       1.62521492       9.28995375
Si       4.58256194       5.24045278       0.80927829
Si       0.68608355       5.24045278      16.15207262
Si       3.32040629       5.24045278       9.28995375
Si       1.94823919       5.24045278       7.67139716
Si       0.68608355       1.62521492      16.15207262
Si       4.58256194       1.62521492       0.80927829
Si      -0.07087853       3.43283385       2.08052560
Si       5.33952402       3.43283385      14.88082531
Si       2.56344421       3.43283385       6.40014986
Si       2.70520128       3.43283385      10.56120106
Si       0.00000000       3.43283385      -0.00000000
Si       2.63432274       3.43283385       8.48067546
14
Lattice="5.246557849643685 -1.0101530737886444e-41 2.6837264994134007e-25 2.0751931711826788e-41 6.851679937015554 -3.5352573144900725e-16 -4.415021579550567e-25 6.816941928435001e-16 16.828657919119948" Properties=species:S:1:pos:R:3 unique_starting_index=9 config_type=initial n_minim_iter=7 stress="-0.006514775209330541 -1.4349644475130362e-17 -2.0379251190552113e-15 -1.4349644475130362e-17 0.0025056142998412514 1.6082027246221403e-17 -2.0379251190552113e-15 1.6082027246221403e-17 -0.003696067764112229" pbc="T T T"
Si       1.95793223       1.62602198       7.59667800
Si       3.28862562       1.62602198       9.23197992
Si       4.58121116       5.22565796       0.81765096
Si       0.66534669       5.22565796      16.01100696
Si       3.28862562       5.22565796       9.23197992
Si       1.95793223       5.22565796       7.59667800
Si       0.66534669       1.62602198      16.01100696
Si       4.58121116       1.62602198       0.81765096
Si      -0.10368476       3.42583997       2.07615409
Si       5.35024261       3.42583997      14.75250383
Si       2.51959416       3.42583997       6.33817487
Si       2.72696369       3.42583997      10.49048305
Si       0.00000000       3.42583997      -0.00000000
Si       2.62327892       3.42583997       8.41432896
14
Lattice="5.2054320023761615 -8.966939561950057e-42 3.900704249407262e-25 3.559689375384212e-41 6.8272482071286085 -6.912181947130572e-16 -3.488777598848228e-26 -1.9254115935570412e-16 16.376641901940452" Properties=species:S:1:pos:R:3 unique_starting_index=9 config_type=initial n_minim_iter=8 stress="0.012913328586940285 -4.822734675294197e-17 -2.0487416129292097e-15 -4.822734675294197e-17 0.010610231517814123 -1.6234456037114994e-16 -2.0487416129292097e-15 -1.6234456037114994e-16 0.03991501682839867" pbc="T T T"
Si       2.06989862       1.63871938       7.26475437
Si       3.13553339       1.63871938       9.11188753
Si       4.67261462       5.18852883       0.92356658
Si       0.53281738       5.18852883      15.45307532
Si       3.13553339       5.18852883       9.11188753
Si       2.06989862       5.18852883       7.26475437
Si       0.53281738       1.63871938      15.45307532
Si       4.67261462       1.63871938       0.92356658
Si      -0.34455071       3.41362410       2.07813205
Si       5.54998271       3.41362410      14.29850985
Si       2.25816529       3.41362410       6.11018890
Si       2.94726671       3.41362410      10.26645301
Si       0.00000000       3.41362410      -0.00000000
Si       2.60271600       3.41362410       8.18832095
14
Lattice="5.20440159492573 -6.572306323393574e-42 3.974688244986924e-25 3.6798166617188197e-41 6.8264120775731545 -6.792700201297358e-16 -1.054535250863633e-26 -1.6436848259569013e-16 16.35811882511916" Properties=species:S:1:pos:R:3 unique_starting_index=9 config_type=initial n_minim_iter=9 stress="0.012002136442789295 2.1959110496809595e-17 -2.444296349560532e-15 2.1959110496809595e-17 0.004051906682358931 -4.4999016180524755e-16 -2.444296349560532e-15 -4.4999016180524755e-16 0.03880924393735312" pbc="T T T"
Si       2.07366892       1.63933822       7.25239861
Si       3.13073268       1.63933822       9.10572021
Si       4.67586972       5.18707386       0.92666080
Si       0.52853188       5.18707386      15.43145803
Si       3.13073268       5.18707386       9.10572021
Si       2.07366892       5.18707386       7.25239861
Si       0.52853188       1.63933822      15.43145803
Si       4.67586972       1.63933822       0.92666080
Si      -0.35246614       3.41320604       2.07754639
Si       5.55686774       3.41320604      14.28057243
Si       2.24973465       3.41320604       6.10151302
Si       2.95466694       3.41320604      10.25660581
Si       0.00000000       3.41320604      -0.00000000
Si       2.60220080       3.41320604       8.17905941
14
Lattice="5.2448529337882235 -6.640038021870275e-42 3.981630945685805e-25 3.7165448792559547e-41 6.83285407001563 -6.826816398802203e-16 -4.788352044023526e-27 -1.7751392544673043e-16 16.308919186260155" Properties=species:S:1:pos:R:3 unique_starting_index=9 config_type=initial n_minim_iter=10 stress="0.0099114255439744 -2.0054385877838258e-17 -9.402367886498512e-15 -2.0054385877838258e-17 -0.00985226158639602 -8.681716171775953e-17 -9.402367886498512e-15 -8.681716171775953e-17 0.004752488269620917" pbc="T T T"
Si       2.09247396       1.65072689       7.23816384
Si       3.15237897       1.65072689       9.07075535
Si       4.71490043       5.18212718       0.91629575
Si       0.52995251       5.18212718      15.39262343
Si       3.15237897       5.18212718       9.07075535
Si       2.09247396       5.18212718       7.23816384
Si       0.52995251       1.65072689      15.39262343
Si       4.71490043       1.65072689       0.91629575
Si      -0.35624439       3.41642704       2.06855802
Si       5.60109732       3.41642704      14.24036116
Si       2.26618208       3.41642704       6.08590157
Si       2.97867085       3.41642704      10.22301762
Si       0.00000000       3.41642704      -0.00000000
Si       2.62242647       3.41642704       8.15445959
14
Lattice="5.186264167427121 -5.0990535321761316e-42 4.007003063043967e-25 3.762725532417391e-41 6.883043501601759 -6.722512954580009e-16 -1.62607281736544e-27 -1.4535523906380966e-16 16.372074823257243" Properties=species:S:1:pos:R:3 unique_starting_index=9 config_type=initial n_minim_iter=11 stress="-0.005210423805186773 -2.9651527351138904e-17 -8.544581795937205e-16 -2.9651527351138904e-17 0.017869233818319962 -5.023438131829776e-16 -8.544581795937205e-16 -5.023438131829776e-16 0.005305171324694744" pbc="T T T"
Si       2.07551793       1.65844613       7.26711335
Si       3.11074624       1.65844613       9.10496148
Si       4.66865002       5.22459737       0.91892407
Si       0.51761415       5.22459737      15.45315076
Si       3.11074624       5.22459737       9.10496148
Si       2.07551793       5.22459737       7.26711335
Si       0.51761415       1.65844613      15.45315076
Si       4.66865002       1.65844613       0.91892407
Si      -0.37253374       3.44152175       2.05876869
Si       5.55879791       3.44152175      14.31330613
Si       2.22059834       3.44152175       6.12726872
Si       2.96566583       3.44152175      10.24480610
Si       0.00000000       3.44152175      -0.00000000
Si       2.59313208       3.44152175       8.18603741
14
Lattice="5.201582521527942 4.08891162264775e-43 4.1190253510416874e-25 3.7249644179428316e-41 6.879284648126455 -5.915438020742432e-16 -1.1906927588395046e-27 9.49654084929248e-17 16.824046221272845" Properties=species:S:1:pos:R:3 unique_starting_index=9 config_type=initial n_minim_iter=12 stress="-0.0040059647574449304 -3.8036839546614276e-18 -8.840952026500549e-16 -3.8036839546614276e-18 -2.0048438744160335e-05 -2.3535443522719778e-17 -8.840952026500549e-16 -2.3535443522719778e-17 -0.004458501452452757" pbc="T T T"
Si       2.12022051       1.64389278       7.48718625
Si       3.08136201       1.64389278       9.33685997
Si       4.72101177       5.23539187       0.92483686
Si       0.48057075       5.23539187      15.89920936
Si       3.08136201       5.23539187       9.33685997
Si       2.12022051       5.23539187       7.48718625
Si       0.48057075       1.64389278      15.89920936
Si       4.72101177       1.64389278       0.92483686
Si      -0.43395995       3.43964232       2.03539635
Si       5.63554248       3.43964232      14.78864987
Si       2.16683131       3.43964232       6.37662676
Si       3.03475122       3.43964232      10.44741946
Si       0.00000000       3.43964232      -0.00000000
Si       2.60079126       3.43964232       8.41202311
14
Lattice="5.208546780216926 6.823857325870332e-43 4.162045035977976e-25 3.715229795759034e-41 6.883643844021488 -5.909862072192804e-16 -1.3077868435471597e-27 1.1110083726150217e-16 17.00129520617658" Properties=species:S:1:pos:R:3 unique_starting_index=9 config_type=initial n_minim_iter=13 stress="-0.0010282822578023894 -1.511349376730326e-17 -1.3066360391373124e-15 -1.511349376730326e-17 0.0014882337949484229 -5.383733488647862e-17 -1.3066360391373124e-15 -5.383733488647862e-17 -0.00028245073166730395" pbc="T T T"
Si       2.14259358       1.64225594       7.57030867
Si       3.06595320       1.64225594       9.43098654
Si       4.74686697       5.24138790       0.93033894
Si       0.46167981       5.24138790      16.07095627
Si       3.06595320       5.24138790       9.43098654
Si       2.14259358       5.24138790       7.57030867
Si       0.46167981       1.64225594      16.07095627
Si       4.74686697       1.64225594       0.93033894
Si      -0.46541682       3.44182192       2.03402946
Si       5.67396360       3.44182192      14.96726575
Si       2.13885657       3.44182192       6.46661814
Si       3.06969021       3.44182192      10.53467706
Si       0.00000000       3.44182192      -0.00000000
Si       2.60427339       3.44182192       8.50064760
14
Lattice="5.225201951170225 1.6364316433209282e-42 4.17895211976506e-25 3.697314901169257e-41 6.892355293922816 -5.739787440285918e-16 -1.3761548680923761e-27 1.5989999389307917e-16 17.071200579179667" Properties=species:S:1:pos:R:3 unique_starting_index=9 config_type=initial n_minim_iter=14 stress="0.0032148593002518018 -1.9445028010263034e-18 -1.6190115328458794e-15 -1.9445028010263034e-18 0.007565858635449693 -5.320984242949184e-17 -1.6190115328458794e-15 -5.320984242949184e-17 0.0076198627966626775" pbc="T T T"
Si       2.19331191       1.64236460       7.58550516
Si       3.03189004       1.64236460       9.48569542
Si       4.80591289       5.24999070       0.95009513
Si       0.41928906       5.24999070      16.12110545
Si       3.03189004       5.24999070       9.48569542
Si       2.19331191       5.24999070       7.58550516
Si       0.41928906       1.64236460      16.12110545
Si       4.80591289       1.64236460       0.95009513
Si      -0.54269923       3.44617765       2.04223004
Si       5.76790118       3.44617765      15.02897054
Si       2.06990175       3.44617765       6.49337025
Si       3.15530021       3.44617765      10.57783033
Si       0.00000000       3.44617765      -0.00000000
Si       2.61260098       3.44617765       8.53560029
14
Lattice="5.228468101720062 2.3055795590714906e-42 4.1734294226686265e-25 3.670784413253795e-41 6.89173863937663 -5.585879146234891e-16 -1.3668996865874724e-27 1.9665540311155215e-16 17.048507128966264" Properties=species:S:1:pos:R:3 unique_starting_index=9 config_type=initial n_minim_iter=15 stress="0.004384123357781545 -2.0214561078560234e-18 -2.964900229225551e-15 -2.0214561078560234e-18 0.007947492102249917 -4.201159534421708e-17 -2.964900229225551e-15 -4.201159534421708e-17 0.015378663354706381" pbc="T T T"
Si       2.20519883       1.64207922       7.56926860
Si       3.02326928       1.64207922       9.47923853
Si       4.81943288       5.24965942       0.95498497
Si       0.40903522       5.24965942      16.09352216
Si       3.02326928       5.24965942       9.47923853
Si       2.20519883       5.24965942       7.56926860
Si       0.40903522       1.64207922      16.09352216
Si       4.81943288       1.64207922       0.95498497
Si      -0.56080752       3.44586932       2.04361914
Si       5.78927562       3.44586932      15.00488799
Si       2.05342653       3.44586932       6.48063443
Si       3.17504157       3.44586932      10.56787270
Si       0.00000000       3.44586932      -0.00000000
Si       2.61423405       3.44586932       8.52425356
14
Lattice="5.239811374360386 1.736906328530543e-42 4.08495951853749e-25 3.6484726752081384e-41 6.896968942729694 -5.524751755672395e-16 -9.067586530602092e-28 1.8285698768021217e-16 16.681029171429902" Properties=species:S:1:pos:R:3 unique_starting_index=9 config_type=initial n_minim_iter=16 stress="0.005982480910279519 -1.6880215257607518e-17 -1.7949904877354433e-15 -1.6880215257607518e-17 0.00749620502188237 -4.186299916845357e-17 -1.7949904877354433e-15 -4.186299916845357e-17 -0.0006420571628418575" pbc="T T T"
Si       2.24645220       1.64089447       7.37197187
Si       2.99335918       1.64089447       9.30905731
Si       4.86635788       5.25607447       0.96854272
Si       0.37345349       5.25607447      15.71248645
Si       2.99335918       5.25607447       9.30905731
Si       2.24645220       5.25607447       7.37197187
Si       0.37345349       1.64089447      15.71248645
Si       4.86635788       1.64089447       0.96854272
Si      -0.62295186       3.44848447       2.01994873
Si       5.86276323       3.44848447      14.66108044
Si       1.99695383       3.44848447       6.32056586
Si       3.24285755       3.44848447      10.36046332
Si       0.00000000       3.44848447      -0.00000000
Si       2.61990569       3.44848447       8.34051459
14
Lattice="5.2408395843246565 1.6397674497818802e-42 4.0447426876674356e-25 3.625091456290434e-41 6.906246869237397 -5.458029686403727e-16 -4.628342617645024e-28 1.8658549204530374e-16 16.510964377641574" Properties=species:S:1:pos:R:3 unique_starting_index=9 config_type=initial n_minim_iter=17 stress="0.0028498266206041954 3.791566970959004e-18 -7.184973101421134e-16 3.791566970959004e-18 0.012829699965196041 2.996456912354188e-17 -7.184973101421134e-16 2.996456912354188e-17 0.0017093079397959916" pbc="T T T"
Si       2.29348167       1.63969287       7.27040855
Si       2.94735791       1.63969287       9.24055583
Si       4.91390146       5.26655399       0.98507364
Si       0.32693812       5.26655399      15.52589074
Si       2.94735791       5.26655399       9.24055583
Si       2.29348167       5.26655399       7.27040855
Si       0.32693812       1.63969287      15.52589074
Si       4.91390146       1.63969287       0.98507364
Si      -0.69909476       3.45312343       1.99907663
Si       5.93993435       3.45312343      14.51188775
Si       1.92132503       3.45312343       6.25640556
Si       3.31951455       3.45312343      10.25455882
Si       0.00000000       3.45312343      -0.00000000
Si       2.62041979       3.45312343       8.25548219
14
Lattice="5.2379117293688715 3.2725360836855145e-43 4.0831172228365867e-25 3.5851702022170687e-41 6.88825430591404 -5.665529213153151e-16 -3.28059885781552e-28 1.4487062773319908e-16 16.66586197957209" Properties=species:S:1:pos:R:3 unique_starting_index=9 config_type=initial n_minim_iter=18 stress="-0.0032442432365286417 3.005714834066278e-18 -3.8639584873202574e-16 3.005714834066278e-18 0.004926461541245174 3.970969162885527e-17 -3.8639584873202574e-16 3.970969162885527e-17 0.007332653042165356" pbc="T T T"
Si       2.34510827       1.63846834       7.33494672
Si       2.89280346       1.63846834       9.33091526
Si       4.96406413       5.24978596       0.99798427
Si       0.27384759       5.24978596      15.66787771
Si       2.89280346       5.24978596       9.33091526
Si       2.34510827       5.24978596       7.33494672
Si       0.27384759       1.63846834      15.66787771
Si       4.96406413       1.63846834       0.99798427
Si      -0.76375362       3.44412715       1.97772368
Si       6.00166535       3.44412715      14.68813830
Si       1.85520224       3.44412715       6.35520731
Si       3.38270949       3.44412715      10.31065467
Si       0.00000000       3.44412715      -0.00000000
Si       2.61895586       3.44412715       8.33293099
14
Lattice="5.240204928254728 1.3496381874244374e-42 4.1142962523074617e-25 3.5620898810738094e-41 6.8813546988851595 -5.507195709753266e-16 -3.0588890502310327e-28 1.9445655493433523e-16 16.79283985757306" Properties=species:S:1:pos:R:3 unique_starting_index=9 config_type=initial n_minim_iter=19 stress="-0.0021048093781080323 3.146702067009738e-17 -4.059209671229854e-16 3.146702067009738e-17 -0.0016014598683658484 -2.4293767763715096e-17 -4.059209671229854e-16 -2.4293767763715096e-17 -0.0010783721457456041" pbc="T T T"
Si       2.34265330       1.64127725       7.40221348
Si       2.89755163       1.64127725       9.39062638
Si       4.96275576       5.24007745       0.99420645
Si       0.27744916       5.24007745      15.79863341
Si       2.89755163       5.24007745       9.39062638
Si       2.34265330       5.24007745       7.40221348
Si       0.27744916       1.64127725      15.79863341
Si       4.96275576       1.64127725       0.99420645
Si      -0.74751723       3.44067735       1.97860857
Si       5.98772216       3.44067735      14.81423129
Si       1.87258524       3.44067735       6.41781136
Si       3.36761969       3.44067735      10.37502850
Si       0.00000000       3.44067735      -0.00000000
Si       2.62010246       3.44067735       8.39641993
14
Lattice="5.254517372614191 3.290426919867485e-42 4.1097414081745615e-25 3.5525228777103013e-41 6.8830804148012 -5.161338082194357e-16 -2.6965344852858924e-28 2.7984972536650083e-16 16.7737603852138" Properties=species:S:1:pos:R:3 unique_starting_index=9 config_type=initial n_minim_iter=20 stress="-0.0009532008274732972 -1.463054729856677e-17 -1.0742422286995864e-16 -1.463054729856677e-17 -0.0006481557638327154 3.485500810784946e-17 -1.0742422286995864e-16 3.485500810784946e-17 0.0007041829868448891" pbc="T T T"
Si       2.36661636       1.64580045       7.38791240
Si       2.88790101       1.64580045       9.38584799
Si       4.99387505       5.23727997       0.99896780
Si       0.26064232       5.23727997      15.77479259
Si       2.88790101       5.23727997       9.38584799
Si       2.36661636       5.23727997       7.38791240
Si       0.26064232       1.64580045      15.77479259
Si       4.99387505       1.64580045       0.99896780
Si      -0.76613920       3.44154021       1.97283231
Si       6.02065657       3.44154021      14.80092808
Si       1.86111948       3.44154021       6.41404789
Si       3.39339789       3.44154021      10.35971250
Si       0.00000000       3.44154021      -0.00000000
Si       2.62725869       3.44154021       8.38688019
14
Lattice="5.317627008797103 5.616823100230013e-43 4.052571129003889e-25 3.5259089813908595e-41 6.875576162297413 -5.450867765274192e-16 -8.282343069121714e-29 1.9004551836986309e-16 16.537918211484836" Properties=species:S:1:pos:R:3 unique_starting_index=9 config_type=initial n_minim_iter=21 stress="-0.0054712767502449605 -1.8628197127634744e-18 -9.820518573308975e-16 -1.8628197127634744e-18 -0.0011334767494449345 -4.560137073908161e-17 -9.820518573308975e-16 -4.560137073908161e-17 0.008440207473703179" pbc="T T T"
Si       2.45927728       1.65503433       7.25070338
Si       2.85834973       1.65503433       9.28721483
Si       5.11809078       5.22054183       1.01825573
Si       0.19953623       5.22054183      15.51966248
Si       2.85834973       5.22054183       9.28721483
Si       2.45927728       5.22054183       7.25070338
Si       0.19953623       1.65503433      15.51966248
Si       5.11809078       1.65503433       1.01825573
Si      -0.82158789       3.43778808       1.95397223
Si       6.13921490       3.43778808      14.58394598
Si       1.83722561       3.43778808       6.31498687
Si       3.48040140       3.43778808      10.22293134
Si       0.00000000       3.43778808      -0.00000000
Si       2.65881350       3.43778808       8.26895911
