18
Lattice="12.947704250426249 2.620616649993532 2.0148290890739418 6.937029867213765 11.24225482739616 2.014829089073954 6.937029867213749 4.836230291793882 10.346917725923346" Properties=species:S:1:pos:R:3 unique_starting_index=39 config_type=initial n_minim_iter=16 energy=-2929.3481501445185 free_energy=-2929.3481501445185 pbc="T T T"
Si      14.94566965      11.71379195       5.26668039
Si      12.76932074      11.22177661       9.96694853
Si      16.16004094       7.65241499       8.28356849
Si      14.94566965       8.10004822       9.96694853
Si      12.76932074      12.51602278       8.28356849
Si      16.16004094       9.97191254       5.26668039
Si       4.14033785       5.48414340       2.88095306
Si       5.36671890       2.43442404       4.55960796
Si       6.57768154       3.29509315       1.18092492
Si       4.14033785       4.19353010       4.55960796
Si       5.36671890       5.03208322       1.18092492
Si       6.57768154       1.98804729       2.88095306
Si      11.69688717       9.44534360       9.54307372
Si      14.97642733       6.94573801       6.67572388
Si      12.90795362      11.20345547       4.99692506
Si      11.69688717      11.64987049       6.67572388
Si      14.97642733       8.23646196       4.99692506
Si      12.90795362       7.70820462       9.54307372
