20
Lattice="5.451187835062757 -1.6056036485037126 -5.15166590908703e-14 -2.826979074251806 7.651333673230935 -7.659520985497665e-14 2.2319803390983498e-13 2.430592521952141e-13 16.042142478110687" Properties=species:S:1:pos:R:3 unique_starting_index=93 config_type=initial n_minim_iter=1 energy=-3265.6444039196554 free_energy=-3265.6444039196554 pbc="T T T"
Si       2.63320115      -1.03409172       9.63810135
Si      -0.00899237       7.07982174       1.61703011
Si       0.46658982      -1.11306933      10.74709942
Si       2.15761895       7.15879935       2.72602818
Si       1.49085086       0.30543240       3.02143469
Si       1.13335791       5.74029762      11.04250592
Si       2.48348393       1.14452468       4.70689592
Si       0.14072484       4.90120534      12.72796716
Si      -0.30587148       4.38184974       8.96871558
Si       2.93008025       1.66388028       0.94764434
Si       3.48494605       0.97406885       2.84953184
Si      -0.86073728       5.07166117      10.87060308
Si      -0.79376238       3.40056739      15.76349757
Si       3.41797115       2.64516263       7.74242633
Si       4.41138379       0.27519331       4.61961609
Si      -1.78717502       5.77053671      12.64068733
Si       0.82800518       4.10222091      14.56721429
Si       1.79620359       1.94350911       6.54614305
Si      -1.07488835       5.00923953      14.47009060
Si       3.69909712       1.03649049       6.44901936
20
Lattice="5.448607300913189 -1.6147673777832836 -5.13419131466513e-14 -2.836303115881324 7.658802846631641 -7.657864996848564e-14 2.2249946905563494e-13 2.4229852573137664e-13 15.991933805906141" Properties=species:S:1:pos:R:3 unique_starting_index=93 config_type=initial n_minim_iter=2 stress="-0.007780566764966821 0.003816963035105988 1.588441525048147e-16 0.003816963035105988 -0.0062599609443574665 2.4216725426726675e-16 1.588441525048147e-16 2.4216725426726675e-16 -0.01868725493694446" pbc="T T T"
Si       2.63212336      -1.03833233       9.60764887
Si      -0.01981917       7.08236779       1.61168197
Si       0.46827260      -1.11433761      10.71346617
Si       2.14403160       7.15837308       2.71749926
Si       1.48923495       0.30346203       3.01226789
Si       1.12306925       5.74057343      11.00823479
Si       2.47945330       1.14108367       4.69252197
Si       0.13285090       4.90295179      12.68848888
Si      -0.31221942       4.38433735       8.94079392
Si       2.92452362       1.65969812       0.94482702
Si       3.48037124       0.96946571       2.84080261
Si      -0.86806704       5.07456975      10.83676952
Si      -0.79766110       3.40335876      15.71355827
Si       3.40996530       2.64067671       7.71759136
Si       4.40695544       0.26826224       4.60510615
Si      -1.79465125       5.77577323      12.60107305
Si       0.81988853       4.10233248      14.52219786
Si       1.79241566       1.94170299       6.52623096
Si      -1.08136287       5.01327048      14.42417926
Si       3.69366706       1.03076498       6.42821236
20
Lattice="5.453399615543068 -1.6272370775792249 -5.121965761208599e-14 -2.851860804109184 7.673843748122398 -7.659008141190382e-14 2.224929776701657e-13 2.4229145671168033e-13 15.991467243863656" Properties=species:S:1:pos:R:3 unique_starting_index=93 config_type=initial n_minim_iter=3 stress="0.0003016644058983946 -0.0021715657670406054 -5.357914485918659e-16 -0.0021715657670406054 -0.0031405385645208567 2.2999941811135767e-15 -5.357914485918659e-16 2.2999941811135767e-15 -0.013960321460508181" pbc="T T T"
Si       2.63459037      -1.04425697       9.60694213
Si      -0.03305155       7.09086364       1.61120851
Si       0.47097579      -1.11665969      10.71292464
Si       2.13056303       7.16326636       2.71719102
Si       1.48929640       0.30125429       3.01244049
Si       1.11224243       5.74535238      11.00817412
Si       2.47821617       1.13774255       4.69275269
Si       0.12332265       4.90886411      12.68848631
Si      -0.32033672       4.39079256       8.94077586
Si       2.92187555       1.65581411       0.94504223
Si       3.47990218       0.96462713       2.84093601
Si      -0.87836336       5.08197954      10.83666964
Si      -0.80353007       3.40937673      15.71230025
Si       3.40506890       2.63722994       7.71656662
Si       4.40787328       0.26006068       4.60516319
Si      -1.80633446       5.78654598      12.60089682
Si       0.81118665       4.10557767      14.52262299
Si       1.79035217       1.94102900       6.52688936
Si      -1.09092157       5.02211002      14.42308604
Si       3.69246040       1.02449665       6.42735242
20
Lattice="5.439753197925692 -1.6315794280197702 -5.096399961387561e-14 -2.847283229162694 7.68605090521543 -7.683872452226369e-14 2.2270826400757804e-13 2.4252590024714826e-13 16.00694074081997" Properties=species:S:1:pos:R:3 unique_starting_index=93 config_type=initial n_minim_iter=4 stress="-0.013061314908150207 -0.001305097970340596 -2.4331346994635017e-15 -0.001305097970340596 -0.003226989141345519 2.78690735255424e-15 -2.4331346994635017e-15 2.78690735255424e-15 -0.011846497393218532" pbc="T T T"
Si       2.62774323      -1.04609172       9.61571974
Si      -0.03527324       7.10056320       1.61224937
Si       0.47097583      -1.11855896      10.72292670
Si       2.12149415       7.17303043       2.71945633
Si       1.48559496       0.30142509       3.01524213
Si       1.10687502       5.75304638      11.01871250
Si       2.47230254       1.13832427       4.69814582
Si       0.12016745       4.91614720      12.70161619
Si      -0.32053471       4.39805688       8.94983175
Si       2.91300469       1.65641460       0.94636138
Si       3.47121901       0.96598078       2.84411748
Si      -0.87874903       5.08849070      10.84758785
Si      -0.80138204       3.41493460      15.72621892
Si       3.39385203       2.63953687       7.72274855
Si       4.39575751       0.25893181       4.60996680
Si      -1.80328753       5.79553967      12.61343717
Si       0.80556337       4.11081486      14.53807178
Si       1.78690661       1.94365662       6.53460141
Si      -1.08924316       5.03077227      14.43588810
Si       3.68171314       1.02369920       6.43241773
20
Lattice="5.445246696343752 -1.6250878815611975 -5.113878726944186e-14 -2.839430632729715 7.691448872029814 -7.702976570434948e-14 2.2262657362564302e-13 2.4243694066808375e-13 16.001069323750848" Properties=species:S:1:pos:R:3 unique_starting_index=93 config_type=initial n_minim_iter=5 stress="-0.008047287979347353 0.0007614574050997994 3.8337990878374714e-15 0.0007614574050997994 -0.002142662661619043 8.668496772033444e-16 3.8337990878374714e-15 8.668496772033444e-16 -0.011944601222076757" pbc="T T T"
Si       2.62973708      -1.04256666       9.61173266
Si      -0.02392101       7.10892764       1.61119800
Si       0.47145426      -1.11974237      10.71906775
Si       2.13436181       7.18610336       2.71853309
Si       1.48889462       0.30437660       3.01363989
Si       1.11692145       5.76198439      11.01417455
Si       2.47838607       1.14380702       4.69763435
Si       0.12743001       4.92255397      12.69816901
Si      -0.31324531       4.40445534       8.94716004
Si       2.91906138       1.66190565       0.94662538
Si       3.47926898       0.97459022       2.84368096
Si      -0.87345291       5.09177076      10.84421563
Si      -0.79628474       3.41814776      15.71922327
Si       3.40210082       2.64821323       7.71868861
Si       4.40243021       0.26591019       4.60813503
Si      -1.79661414       5.80045079      12.60866969
Si       0.81101986       4.11730077      14.53373440
Si       1.79479621       1.94906021       6.53319974
Si      -1.08226644       5.03704264      14.42941801
Si       3.68808252       1.02931835       6.42888335
20
Lattice="5.448526313507862 -1.6117407972449922 -5.138664296834961e-14 -2.8246997505057485 7.68363201099699 -7.711628429467421e-14 2.2301150943083592e-13 2.428561298845584e-13 16.028736211866562" Properties=species:S:1:pos:R:3 unique_starting_index=93 config_type=initial n_minim_iter=6 stress="-0.0016337264099767147 0.00022999375610554062 2.610058341321652e-15 0.00022999375610554062 0.0010020661016749287 1.645302068217198e-15 2.610058341321652e-15 1.645302068217198e-15 0.0003062886267332012" pbc="T T T"
Si       2.62910997      -1.03347021       9.62693591
Si      -0.00528340       7.10536142       1.61256781
Si       0.47685528      -1.12004438      10.73641230
Si       2.14697129       7.19193559       2.72204420
Si       1.49751676       0.31135030       3.01851683
Si       1.12630982       5.76054091      11.03288494
Si       2.48213763       1.14895771       4.70363878
Si       0.14168894       4.92293350      12.71800688
Si      -0.30384312       4.41013959       8.96170391
Si       2.92766970       1.66175162       0.94733580
Si       3.49322054       0.99302406       2.85129842
Si      -0.86939397       5.07886715      10.86566653
Si      -0.79334786       3.41472068      15.74576056
Si       3.41717443       2.65717053       7.73139246
Si       4.40855478       0.27453578       4.61670410
Si      -1.78472820       5.79735543      12.63107221
Si       0.81338199       4.11902712      14.56352866
Si       1.81044459       1.95286409       6.54916055
Si      -1.07089369       5.04261448      14.45302709
Si       3.69472026       1.02927673       6.43865898
20
Lattice="5.45301823670494 -1.60603948258956 -5.153552244040266e-14 -2.8250624095597305 7.663140645909914 -7.680076779372934e-14 2.2318720684513854e-13 2.4304746168701637e-13 16.041364293323667" Properties=species:S:1:pos:R:3 unique_starting_index=93 config_type=initial n_minim_iter=7 stress="0.006034071019553074 0.0014371982694853886 2.084006328111126e-15 0.0014371982694853886 0.002522589051128909 1.5251715727617535e-15 2.084006328111126e-15 1.5251715727617535e-15 0.006028636223268514" pbc="T T T"
Si       2.62909784      -1.02914492       9.63408615
Si      -0.00114200       7.08624607       1.61340400
Si       0.47946303      -1.11619875      10.74274095
Si       2.14849280       7.17329991       2.72205881
Si       1.50079911       0.31374037       3.01905473
Si       1.12715673       5.74336079      11.03973688
Si       2.48412065       1.14761451       4.70995584
Si       0.14383519       4.90948665      12.73063799
Si      -0.30309027       4.40346982       8.96800414
Si       2.93104611       1.65363134       0.94732199
Si       3.50011565       0.99807760       2.85440949
Si      -0.87215982       5.05902356      10.87509163
Si      -0.79703126       3.40507600      15.75794344
Si       3.42498710       2.65202516       7.73726129
Si       4.41232247       0.27406029       4.62216484
Si      -1.78436663       5.78304087      12.64284699
Si       0.81032907       4.10972656      14.57606446
Si       1.81762677       1.94737460       6.55538231
Si      -1.06963681       5.03506531      14.46343894
Si       3.69759264       1.02203585       6.44275679
20
Lattice="5.461482248010292 -1.596642611927481 -5.179565895546848e-14 -2.840222158859554 7.581794510976651 -7.535734731571449e-14 2.2399122696133446e-13 2.4392302732157485e-13 16.099152460330963" Properties=species:S:1:pos:R:3 unique_starting_index=93 config_type=initial n_minim_iter=8 stress="0.008168346174421116 0.0015729598993749507 1.954125702666582e-15 0.0015729598993749507 0.009617186811898128 -4.922251599469407e-15 1.954125702666582e-15 -4.922251599469407e-15 0.02422296174562828" pbc="T T T"
Si       2.62559095      -1.02018843       9.66917639
Si      -0.00433085       7.00534032       1.61960016
Si       0.48869288      -1.10181302      10.77954633
Si       2.13256722       7.08696492       2.72997010
Si       1.51262949       0.31961439       3.01970323
Si       1.10863061       5.66553751      11.06927946
Si       2.48731888       1.13289966       4.73070218
Si       0.13394122       4.85225224      12.78027841
Si      -0.30506516       4.37057772       9.00135992
Si       2.92632526       1.61457417       0.95178369
Si       3.50431544       1.00052094       2.87170199
Si      -0.88305534       4.98463096      10.92127822
Si      -0.81488180       3.36578886      15.81164275
Si       3.43614190       2.61936304       7.76206652
Si       4.41595734       0.25887737       4.63792640
Si      -1.79469724       5.72627452      12.68750263
Si       0.79326924       4.06549450      14.63259437
Si       1.82799086       1.91965739       6.58301814
Si      -1.07776013       4.99914166      14.51538039
Si       3.69902023       0.98601024       6.46580416
20
Lattice="5.473349280684916 -1.588941067906114 -5.207745609684597e-14 -2.8540756212249185 7.518953936545153 -7.421248473787043e-14 2.2427195520971507e-13 2.4422873609922945e-13 16.119329531245366" Properties=species:S:1:pos:R:3 unique_starting_index=93 config_type=initial n_minim_iter=9 stress="0.009123377777327215 -0.002690332056229029 4.744579275857236e-15 -0.002690332056229029 -0.0032519591993853464 2.117385233115809e-16 4.744579275857236e-15 2.117385233115809e-16 0.02164750529746394" pbc="T T T"
Si       2.62622880      -1.01542641       9.68318909
Si      -0.00695513       6.94543928       1.62352432
Si       0.49369988      -1.09111236      10.79180501
Si       2.12557379       7.02112522       2.73214025
Si       1.51830988       0.32085015       3.01867096
Si       1.10096379       5.60916271      11.07833573
Si       2.49302694       1.12043026       4.73732926
Si       0.12624673       4.80958261      12.79699403
Si      -0.30766090       4.34037043       9.01325517
Si       2.92693457       1.58964243       0.95359040
Si       3.51128876       0.99473111       2.87792568
Si      -0.89201509       4.93528176      10.93759044
Si      -0.82562274       3.33629567      15.82975779
Si       3.44489641       2.59371719       7.77009302
Si       4.42225427       0.24989424       4.64275606
Si      -1.80298059       5.68011863      12.70242083
Si       0.78491897       4.03008432      14.65401486
Si       1.83435470       1.89992855       6.59435010
Si      -1.08492952       4.96589612      14.53341314
Si       3.70420319       0.96411674       6.47374837
20
Lattice="5.51461722109912 -1.5816232775720929 -5.276250049320775e-14 -2.883831911675939 7.455716424457494 -7.284034831944218e-14 2.237734641667986e-13 2.436858869620985e-13 16.08350097041782" Properties=species:S:1:pos:R:3 unique_starting_index=93 config_type=initial n_minim_iter=10 stress="0.026094750134771187 -0.00033440941540502595 3.290988920041569e-15 -0.00033440941540502595 0.011815928720077203 -1.0442315868942687e-15 3.290988920041569e-15 -1.0442315868942687e-15 0.021058032886314648" pbc="T T T"
Si       2.61961924      -1.01296288       9.66962358
Si       0.01116608       6.88705603       1.62787310
Si       0.50536359      -1.07129662      10.76176625
Si       2.12542173       6.94538977       2.72001577
Si       1.53502935       0.34408766       2.99270225
Si       1.09575597       5.53000548      11.03445273
Si       2.52267277       1.10632796       4.72484567
Si       0.10811255       4.76776518      12.76659615
Si      -0.30367453       4.33302348       8.99367461
Si       2.93445985       1.54106966       0.95192413
Si       3.54596879       1.01070312       2.88808698
Si      -0.91518347       4.86339003      10.92983746
Si      -0.86413367       3.30279913      15.79026732
Si       3.49491899       2.57129401       7.74851683
Si       4.44520896       0.23649283       4.62476673
Si      -1.81442363       5.63760031      12.66651721
Si       0.76753927       3.99599387      14.63581993
Si       1.86324605       1.87809927       6.59406944
Si      -1.09705285       4.96201222      14.50100430
Si       3.72783817       0.91208093       6.45925381
20
Lattice="5.504528721484864 -1.5910993728144767 -5.247856174197413e-14 -2.88272232067082 7.486878148806433 -7.33279268307804e-14 2.23634592941829e-13 2.4353465831773594e-13 16.07351973564596" Properties=species:S:1:pos:R:3 unique_starting_index=93 config_type=initial n_minim_iter=11 stress="0.024958231789216877 -0.020178453637196905 7.82690716338796e-15 -0.020178453637196905 0.033498904344140865 -1.809295711020029e-15 7.82690716338796e-15 -1.809295711020029e-15 0.01455387900609441" pbc="T T T"
Si       2.58600584      -1.02982589       9.68045698
Si       0.03580057       6.92560466       1.64369711
Si       0.51238159      -1.06622168      10.74807139
Si       2.10942483       6.96200045       2.71131152
Si       1.54420197       0.37571832       2.97024487
Si       1.07760444       5.52006045      11.00700474
Si       2.51807762       1.11218491       4.72524198
Si       0.10372879       4.78359386      12.76200184
Si      -0.29017288       4.38139742       8.99089343
Si       2.91197929       1.51438136       0.95413356
Si       3.54758406       1.02956217       2.89219187
Si      -0.92577765       4.86621660      10.92895174
Si      -0.89259326       3.31361279      15.77521524
Si       3.51439967       2.58216598       7.73845537
Si       4.43713823       0.22519290       4.61567241
Si      -1.81533182       5.67058587      12.65243228
Si       0.74639647       4.01579220      14.63349822
Si       1.87540994       1.87998658       6.59673835
Si      -1.09529342       5.01881494      14.49547731
Si       3.71709984       0.87696383       6.45871745
20
Lattice="5.4753686482343715 -1.5636459163654568 -5.2488806357163155e-14 -2.8411315035015066 7.445914666869897 -7.328593962945542e-14 2.2367545852190958e-13 2.435791603107012e-13 16.076456909628273" Properties=species:S:1:pos:R:3 unique_starting_index=93 config_type=initial n_minim_iter=12 stress="0.015013095503780558 -0.011602302606820948 6.9005034321448925e-15 -0.011602302606820948 0.0023722851418993625 -1.3874109180943714e-15 6.9005034321448925e-15 -1.3874109180943714e-15 -0.0006878935790946371" pbc="T T T"
Si       2.51291090      -1.03298273       9.70745427
Si       0.12132625       6.91525148       1.66922582
Si       0.52436135      -1.04536073      10.73439914
Si       2.10987581       6.92762948       2.69617069
Si       1.56268757       0.44601830       2.93506298
Si       1.07154959       5.43625045      10.97329144
Si       2.50958044       1.12321344       4.73023746
Si       0.12465671       4.75905531      12.76846592
Si      -0.23851547       4.42604712       8.99916208
Si       2.87275263       1.45622163       0.96093363
Si       3.56397844       1.07202305       2.90773813
Si      -0.92974129       4.81024570      10.94596658
Si      -0.92879857       3.29721110      15.76192911
Si       3.56303573       2.58505765       7.72370065
Si       4.42642198       0.22053933       4.60704378
Si      -1.79218482       5.66172942      12.64527224
Si       0.72492986       4.00916585      14.65199831
Si       1.90930730       1.87310290       6.61376986
Si      -1.06443423       5.06250910      14.50829803
Si       3.69867139       0.81975965       6.47006957
20
Lattice="5.446642353620767 -1.5463144878959876 -5.235172439077321e-14 -2.7808942679679873 7.517256874928402 -7.520496112685869e-14 2.2251978946210604e-13 2.423206543438681e-13 15.99339431543714" Properties=species:S:1:pos:R:3 unique_starting_index=93 config_type=initial n_minim_iter=13 stress="-0.0006510987869037609 0.00029550757027065673 6.262254944004663e-15 0.00029550757027065673 0.013216634913959217 5.779089441204663e-15 6.262254944004663e-15 5.779089441204663e-15 -0.010876656089906468" pbc="T T T"
Si       2.48513043      -1.02976021       9.67045643
Si       0.18061766       7.00070259       1.67375927
Si       0.51372337      -1.05184060      10.67056726
Si       2.15202472       7.02278298       2.67387010
Si       1.56936904       0.48120744       2.91622938
Si       1.09637906       5.48973494      10.91292653
Si       2.50424020       1.14939154       4.70275103
Si       0.16150790       4.82155084      12.69944818
Si      -0.19259569       4.48264189       8.95492444
Si       2.85834379       1.48830049       0.95822728
Si       3.56695445       1.10450087       2.88237687
Si      -0.90120635       4.86644151      10.87907402
Si      -0.91303176       3.34286690      15.67020397
Si       3.57877986       2.62807549       7.67350681
Si       4.41971276       0.24755883       4.59237057
Si      -1.75396466       5.72338355      12.58906772
Si       0.75311619       4.06087430      14.57780429
Si       1.91263191       1.91006809       6.58110714
Si      -1.02292477       5.11980701      14.44299355
Si       3.68867287       0.85113537       6.44629640
20
Lattice="5.436181717119874 -1.5299777983339782 -5.245370516111449e-14 -2.7477013965652266 7.533681297842682 -7.591563251029497e-14 2.2167644840375416e-13 2.41402268803468e-13 15.932779993802091" Properties=species:S:1:pos:R:3 unique_starting_index=93 config_type=initial n_minim_iter=14 stress="0.0029455270997836543 0.0020561999237800025 6.735655741451362e-15 0.0020561999237800025 -0.002319133447350537 2.365445384560588e-15 6.735655741451362e-15 2.365445384560588e-15 -0.016637682405921034" pbc="T T T"
Si       2.45377424      -1.02781470       9.64752500
Si       0.23470609       7.03151820       1.68113500
Si       0.51003931      -1.04549134      10.62153278
Si       2.17844102       7.04919483       2.65514278
Si       1.58315416       0.52384957       2.89008371
Si       1.10532617       5.47985393      10.85647370
Si       2.50979511       1.15874321       4.68549837
Si       0.17868522       4.84496028      12.65188836
Si      -0.15452966       4.52268940       8.92309634
Si       2.84301000       1.48101409       0.95670634
Si       3.58029673       1.13726651       2.86720649
Si      -0.89181640       4.86643699      10.83359649
Si      -0.92446503       3.36353455      15.59870606
Si       3.61294536       2.64016895       7.63231607
Si       4.42126311       0.25654612       4.57968961
Si      -1.73278278       5.74715738      12.54607961
Si       0.76417158       4.07792224      14.53033443
Si       1.92430875       1.92578125       6.56394444
Si      -0.99540472       5.15497362      14.39939280
Si       3.68388506       0.84872988       6.43300281
20
Lattice="5.411663140047401 -1.519985111854237 -5.226397468728229e-14 -2.7085600748658556 7.575781235705137 -7.709808338854443e-14 2.2086252056020323e-13 2.4051591380504416e-13 15.874279718488642" Properties=species:S:1:pos:R:3 unique_starting_index=93 config_type=initial n_minim_iter=15 stress="-0.004138896172840764 -0.0008233567424042633 5.985575295544976e-15 -0.0008233567424042633 0.003361470591959669 3.854755101930552e-15 5.985575295544976e-15 3.854755101930552e-15 -0.01629188067383112" pbc="T T T"
Si       2.40474605      -1.02745766       9.63239532
Si       0.29835702       7.08325378       1.69525546
Si       0.50754451      -1.04323562      10.57464538
Si       2.19555856       7.09903174       2.63750552
Si       1.59313478       0.58005090       2.85591372
Si       1.10996829       5.47574522      10.79305358
Si       2.51042713       1.16999349       4.67305986
Si       0.19267594       4.88580263      12.61019972
Si      -0.11153475       4.58115619       8.88833635
Si       2.81463783       1.47463994       0.95119649
Si       3.58984986       1.17450133       2.84884436
Si      -0.88674678       4.88129479      10.78598422
Si      -0.94454024       3.40455296      15.52430329
Si       3.64764332       2.65124316       7.58716343
Si       4.41547105       0.25944617       4.56600775
Si      -1.71236798       5.79634995      12.50314761
Si       0.77328607       4.10603665      14.48816676
Si       1.92981701       1.94975947       6.55102690
Si      -0.96413870       5.21016638      14.36555552
Si       3.66724177       0.84562974       6.42841566
20
Lattice="5.418956141598892 -1.5198440045082657 -5.2367581861688906e-14 -2.7146613513813436 7.56723510357257 -7.68837099398238e-14 2.2054382354704726e-13 2.40168857622077e-13 15.851373679385883" Properties=species:S:1:pos:R:3 unique_starting_index=93 config_type=initial n_minim_iter=16 stress="0.009349582418119607 -0.005971551163818448 7.7975774675973e-15 -0.005971551163818448 0.00209867618994386 2.6892962251517244e-15 7.7975774675973e-15 2.6892962251517244e-15 0.014281734366036162" pbc="T T T"
Si       2.40738847      -1.02266509       9.62205307
Si       0.29690633       7.07005619       1.69636623
Si       0.49124205      -1.04313401      10.56562472
Si       2.21305275       7.09052510       2.63993788
Si       1.60012873       0.59987619       2.83502386
Si       1.10416607       5.44751490      10.76071070
Si       2.52333064       1.15748852       4.67551237
Si       0.18096417       4.88990258      12.60119921
Si      -0.10796635       4.58039231       8.86157636
Si       2.81226115       1.46699878       0.93588952
Si       3.60232898       1.17552815       2.83524483
Si      -0.89803418       4.87186294      10.76093167
Si      -0.96793031       3.43155527      15.48970811
Si       3.67222511       2.61583582       7.56402127
Si       4.42872413       0.24771851       4.56484359
Si      -1.72442933       5.79967259      12.49053043
Si       0.78037263       4.08931022      14.47674221
Si       1.92392217       1.95808087       6.55105537
Si      -0.96097391       5.19595782      14.36331615
Si       3.66526871       0.85143327       6.43762931
20
Lattice="5.440413381773568 -1.5212147801287066 -5.264535237326283e-14 -2.732049162307392 7.552513666689902 -7.641874045941875e-14 2.2004311131854081e-13 2.3962358964774093e-13 15.815385472995684" Properties=species:S:1:pos:R:3 unique_starting_index=93 config_type=initial n_minim_iter=17 stress="0.006076007610930919 -0.0023138095285114113 9.363361538897983e-15 -0.0023138095285114113 -0.00553348856079656 3.597306865775344e-15 9.363361538897983e-15 3.597306865775344e-15 0.007133213025454126" pbc="T T T"
Si       2.40981765      -1.01874246       9.60498778
Si       0.29854658       7.05004134       1.69729504
Si       0.49254533      -1.04412837      10.53490159
Si       2.21581890       7.07542725       2.62720885
Si       1.61803006       0.61342157       2.81714218
Si       1.09033417       5.41787731      10.72483491
Si       2.53819144       1.15075438       4.67075331
Si       0.17017280       4.88054450      12.57844605
Si      -0.10792708       4.57679398       8.82719517
Si       2.81629132       1.45450490       0.91950244
Si       3.62375238       1.16589894       2.84115113
Si      -0.91538815       4.86539994      10.74884386
Si      -0.99107977       3.43679568      15.44956645
Si       3.69944400       2.59450321       7.54187372
Si       4.44045079       0.24427356       4.55818961
Si      -1.73208656       5.78702532      12.46588234
Si       0.77519485       4.07395727      14.44659421
Si       1.93316938       1.95734162       6.53890147
Si      -0.96808091       5.19810211      14.33871526
Si       3.67644514       0.83319677       6.43102252
20
Lattice="5.4487464038230655 -1.508611890931631 -5.2952241740966223e-14 -2.7124360302407537 7.57371643078862 -7.701287185523442e-14 2.1920901144562794e-13 2.3871526761723306e-13 15.75543535261223" Properties=species:S:1:pos:R:3 unique_starting_index=93 config_type=initial n_minim_iter=18 stress="0.0010908944443133498 -0.007112280895934884 6.419924739422225e-15 -0.007112280895934884 -0.003910078169826968 5.758083911875451e-15 6.419924739422225e-15 5.758083911875451e-15 0.012133822883811906" pbc="T T T"
Si       2.39697181      -1.01372664       9.57735181
Si       0.33933858       7.07883118       1.69963414
Si       0.48238115      -1.05612140      10.49680551
Si       2.25392924       7.12122594       2.61908783
Si       1.63384114       0.64942209       2.79736679
Si       1.10246925       5.41568244      10.67508446
Si       2.55258876       1.16202874       4.65040044
Si       0.18372162       4.90307579      12.52811812
Si      -0.08326013       4.61274290       8.77452902
Si       2.81957052       1.45236163       0.89681134
Si       3.64880557       1.18368323       2.83205528
Si      -0.91249518       4.88142131      10.70977296
Si      -0.99874756       3.46347292      15.38198144
Si       3.73505794       2.60163161       7.50426376
Si       4.45041368       0.25168008       4.54972027
Si      -1.71410329       5.81342446      12.42743794
Si       0.77080937       4.08387360      14.39595473
Si       1.96550102       1.98123094       6.51823706
Si      -0.95204314       5.25275763      14.29911869
Si       3.68835352       0.81234691       6.42140101
20
Lattice="5.468037957433224 -1.48332584303714 -5.360376598364904e-14 -2.671885596729613 7.624857855751743 -7.835191828066806e-14 2.175441466736543e-13 2.3690225529184e-13 15.635774809860418" Properties=species:S:1:pos:R:3 unique_starting_index=93 config_type=initial n_minim_iter=19 stress="-0.002581417944195787 -0.006026488934950892 6.599465683452291e-15 -0.006026488934950892 -0.004627868979984825 2.004272063785067e-15 6.599465683452291e-15 2.004272063785067e-15 -0.018110176711012768" pbc="T T T"
Si       2.39338834      -1.00491517       9.50814055
Si       0.40276403       7.14644718       1.69025315
Si       0.47157647      -1.07651222      10.41177152
Si       2.32457590       7.21804422       2.59388411
Si       1.65975090       0.68349466       2.76783425
Si       1.13640147       5.45803735      10.58572166
Si       2.58150011       1.18886648       4.61188234
Si       0.21465227       4.95266553      12.42976975
Si      -0.05767179       4.67308756       8.70564010
Si       2.85382416       1.46844445       0.88775270
Si       3.68005762       1.21831710       2.79955839
Si      -0.88390524       4.92321491      10.61744580
Si      -0.99599526       3.50327966      15.25999762
Si       3.79214763       2.63825235       7.44211021
Si       4.47691906       0.28009002       4.52517542
Si      -1.68076669       5.86144199      12.34306282
Si       0.78721962       4.11368059      14.29632216
Si       2.00893275       2.02785142       6.47843475
Si      -0.91321051       5.33305458      14.20247132
Si       3.70936288       0.80847743       6.38458391
20
Lattice="5.475506260911985 -1.4562259852134904 -5.411827218764117e-14 -2.630938575328178 7.647885075407796 -7.927051587329673e-14 2.1717360849360764e-13 2.364987448693948e-13 15.60914273710529" Properties=species:S:1:pos:R:3 unique_starting_index=93 config_type=initial n_minim_iter=20 stress="0.004129971254298348 0.0061091690406774105 3.50090942095011e-15 0.0061091690406774105 0.002141904760477138 3.1617272722286136e-15 3.50090942095011e-15 3.1617272722286136e-15 -0.008730548493035183" pbc="T T T"
Si       2.38675163      -0.99479272       9.49967688
Si       0.45781606       7.18645181       1.69510552
Si       0.44697101      -1.08918552      10.38682058
Si       2.39759669       7.28084461       2.58224921
Si       1.68344764       0.71553706       2.75667181
Si       1.16112006       5.47612203      10.56124317
Si       2.60199981       1.20481049       4.61015468
Si       0.24256789       4.98684860      12.41472605
Si      -0.02664143       4.71331643       8.68193119
Si       2.87120913       1.47834265       0.87735982
Si       3.70467938       1.24353594       2.79433505
Si      -0.86011168       4.94812314      10.59890642
Si      -0.99983248       3.53580961      15.22597830
Si       3.84440017       2.65584948       7.42140693
Si       4.49690596       0.30387251       4.51845557
Si      -1.65233826       5.88778658      12.32302694
Si       0.80336068       4.13057131      14.27542211
Si       2.04120702       2.06108778       6.47085074
Si      -0.86191021       5.38879162      14.19101107
Si       3.70647791       0.80286747       6.38643970
20
Lattice="5.481706300452705 -1.438577031040597 -5.4471939302035906e-14 -2.6054271194819294 7.661311229779701 -7.982888629300684e-14 2.1665543932744107e-13 2.359344665563971e-13 15.571899830231086" Properties=species:S:1:pos:R:3 unique_starting_index=93 config_type=initial n_minim_iter=21 stress="0.008071931981003528 0.008053168959857507 3.3509374755484394e-15 0.008053168959857507 0.003921967711876971 3.2929200483211792e-15 3.3509374755484394e-15 3.2929200483211792e-15 -0.0031104145038942663" pbc="T T T"
Si       2.37814323      -0.98344619       9.48408097
Si       0.49813596       7.20618039       1.69813105
Si       0.42313973      -1.09975067      10.35299434
Si       2.45313947       7.32248486       2.56704443
Si       1.70096627       0.74169033       2.74546339
Si       1.17531293       5.48104387      10.53141330
Si       2.61983517       1.21189205       4.60512347
Si       0.25644403       5.01084215      12.39107339
Si      -0.00634779       4.74076502       8.65295929
Si       2.88262699       1.48196918       0.86700938
Si       3.72109206       1.25914460       2.78771316
Si      -0.84481286       4.96358959      10.57366308
Si      -1.01037861       3.57299606      15.17911274
Si       3.88665780       2.64973813       7.39316283
Si       4.51134165       0.31830986       4.51067421
Si      -1.63506246       5.90442433      12.29662412
Si       0.81146142       4.13814692      14.23891948
Si       2.06481777       2.08458728       6.45296956
Si      -0.82165658       5.42611066      14.17597908
Si       3.69793577       0.79662354       6.39002917
