16
Lattice="8.123716987466864 1.1458755349497416 0.013577686050077404 2.761632342505769 7.660142036032381 0.6855920087460514 2.8150373848028987 3.1134516195602298 9.84962703845861" Properties=species:S:1:pos:R:3 unique_starting_index=30 config_type=initial n_minim_iter=1 energy=-2608.0839964464894 free_energy=-2608.0839964464894 pbc="T T T"
Si       7.61538336       7.58237880       5.63725897
Si       6.08500336       4.33709039       4.91153776
Si       4.66297150       5.35865663       3.68574813
Si       9.03741522       6.56081256       6.86304860
Si       7.84499336       5.64621572       8.40242051
Si       5.85539336       6.27325347       2.14637622
Si       6.21625983       5.17762702       0.39798284
Si       7.48412688       6.74184217      10.15081389
Si       4.52345560       5.43529193       5.77574382
Si       9.17693112       6.48417726       4.77305291
Si      11.06086210       7.31863336       4.57773479
Si       2.63952461       4.60083583       5.97106194
Si       4.17892633       3.47176348       5.08559732
Si       9.52146039       8.44770571       5.46319941
Si       7.01605937       8.03009726       1.74850675
Si       6.68432735       3.88937193       8.80028998
16
Lattice="8.08857220596955 1.1318877363876176 -0.012147834131196944 2.740824825037082 7.61305559789981 0.7700600498759392 2.7514043174741607 3.2192405886618234 9.838215036714377" Properties=species:S:1:pos:R:3 unique_starting_index=30 config_type=initial n_minim_iter=2 stress="-0.025115724606421867 -0.0005752333374083163 0.002624279087305203 -0.0005752333374083163 -0.015459980892106085 -0.007403220354009304 0.002624279087305203 -0.007403220354009304 -0.012291422896616604" pbc="T T T"
Si       7.55037037       7.59676360       5.67789458
Si       6.03043098       4.36742033       4.91823267
Si       4.62326763       5.36551341       3.71776673
Si       8.95753372       6.59867052       6.87836052
Si       7.76519181       5.70974940       8.40327929
Si       5.81560954       6.25443452       2.19284797
Si       6.18361621       5.14068238       0.43292063
Si       7.39718514       6.82350154      10.16320663
Si       4.47037196       5.47104050       5.80262484
Si       9.11042939       6.49314342       4.79350241
Si      10.98708181       7.31704796       4.60271721
Si       2.59371954       4.64713596       5.99341004
Si       4.13349779       3.51023758       5.09020572
Si       9.44730356       8.45394635       5.50592153
Si       6.97044377       7.99023732       1.81151338
Si       6.61035758       3.97394660       8.78461387
16
Lattice="8.1141394270079 1.1333168045616313 -0.017399180208241976 2.7486271300325678 7.625540133063621 0.7895337488834734 2.749924919605021 3.2510581364905513 9.857178306398419" Properties=species:S:1:pos:R:3 unique_starting_index=30 config_type=initial n_minim_iter=3 stress="-0.0018435561481629928 -0.009172357044411506 -0.009351094865318163 -0.009172357044411506 0.01015044303125018 0.008099916747658665 -0.009351094865318163 0.008099916747658665 0.007041996671577453" pbc="T T T"
Si       7.56818179       7.62289965       5.69862497
Si       6.04450969       4.38701542       4.93068791
Si       4.63445463       5.38326915       3.73193830
Si       8.97823685       6.62664593       6.89737458
Si       7.78097650       5.74051381       8.42142298
Si       5.83171498       6.26940127       2.20788989
Si       6.20226848       5.14827438       0.44119101
Si       7.41042300       6.86164070      10.18812187
Si       4.47844928       5.49519013       5.82142287
Si       9.13424220       6.51472495       4.80789001
Si      11.01752085       7.33980957       4.61761745
Si       2.59517062       4.67010550       6.01169543
Si       4.14131361       3.52868864       5.10218916
Si       9.47137787       8.48122643       5.52712371
Si       6.99004353       8.00608855       1.82793524
Si       6.62264795       4.00382653       8.80137764
16
Lattice="8.20089864588488 1.1852197391592887 0.015030508060984157 2.832851118270677 7.603369890293536 0.8342354660492359 2.8321401194110205 3.30115347011509 9.853644737869153" Properties=species:S:1:pos:R:3 unique_starting_index=30 config_type=initial n_minim_iter=4 stress="0.010814162345899785 0.004839684806910749 -0.005000219080206762 0.004839684806910749 0.016559422379522983 0.008562871538020057 -0.005000219080206762 0.008562871538020057 0.0056931707535992325" pbc="T T T"
Si       7.71389119       7.66081249       5.74361605
Si       6.15199870       4.42893061       4.95929467
Si       4.73189665       5.40492556       3.75684756
Si       9.13399323       6.68481754       6.94606315
Si       7.92421623       5.80307820       8.44786665
Si       5.94167365       6.28666490       2.25504406
Si       6.29747419       5.16166686       0.48614782
Si       7.56841569       6.92807624      10.21676289
Si       4.58034808       5.52572784       5.85008178
Si       9.28554181       6.56401526       4.85282893
Si      11.19432640       7.40161199       4.67588714
Si       2.67156349       4.68813111       6.02702357
Si       4.22129708       3.56354894       5.11967975
Si       9.64459280       8.52619416       5.58323097
Si       7.11743929       8.01732389       1.87690460
Si       6.74845059       4.07241921       8.82600611
16
Lattice="8.247644203081453 1.1724009289703945 0.034780680281150805 2.846648785881791 7.5440762011525795 0.8560018473538278 2.8680207664363198 3.2964567989601634 9.861684021098329" Properties=species:S:1:pos:R:3 unique_starting_index=30 config_type=initial n_minim_iter=5 stress="0.020803820104858033 -0.010966541069763788 -0.009530605837316505 -0.010966541069763788 -0.006466459802773847 0.013632907171230847 -0.009530605837316505 0.013632907171230847 -0.007361160717087451" pbc="T T T"
Si       7.76646994       7.61137055       5.77154550
Si       6.19584382       4.40156338       4.98092105
Si       4.76425091       5.37089051       3.77020970
Si       9.19806285       6.64204341       6.98225685
Si       7.98298570       5.77087224       8.46978789
Si       5.97932805       6.24206169       2.28267866
Si       6.32826668       5.11677463       0.51055837
Si       7.63404707       6.89615930      10.24190818
Si       4.61549781       5.49449735       5.87227026
Si       9.34681594       6.51843658       4.88019629
Si      11.26870143       7.35156994       4.70970351
Si       2.69361233       4.66136399       6.04276303
Si       4.25574118       3.54661616       5.13417047
Si       9.70657257       8.46631776       5.61829608
Si       7.15286298       7.95444376       1.89809182
Si       6.80945078       4.05849017       8.85437473
16
Lattice="8.229464609692124 1.1892148481183262 0.052073861344781674 2.857922818613633 7.542853610750532 0.8752693226842398 2.8865497809736267 3.3142423004132673 9.905876485431637" Properties=species:S:1:pos:R:3 unique_starting_index=30 config_type=initial n_minim_iter=6 stress="-0.0022750482162806024 -0.0040076483350638265 -0.0012648626140298075 -0.0040076483350638265 -0.007951123447346203 0.014571925053669412 -0.0012648626140298075 0.014571925053669412 0.010488313836207398" pbc="T T T"
Si       7.77584086       7.62947774       5.81581039
Si       6.19809635       4.41683302       5.01740928
Si       4.77064904       5.38248640       3.79577765
Si       9.20328817       6.66382436       7.03744202
Si       7.99011032       5.79363166       8.52015175
Si       5.98382689       6.25267910       2.31306792
Si       6.32160291       5.12346998       0.53208649
Si       7.65233430       6.92284078      10.30113318
Si       4.62604009       5.50900456       5.91230528
Si       9.34789712       6.53730620       4.92091439
Si      11.26887158       7.37644536       4.75533055
Si       2.70506563       4.66986540       6.07788912
Si       4.26389851       3.56046672       5.16504210
Si       9.71003870       8.48584404       5.66817757
Si       7.15270883       7.96335595       1.92371998
Si       6.82122838       4.08295481       8.90949969
16
Lattice="8.220737483143326 1.2153090063941399 0.03274245785130152 2.872620107006635 7.580718709354003 0.8564948798965091 2.86895004045289 3.3230832813175613 9.840566728735995" Properties=species:S:1:pos:R:3 unique_starting_index=30 config_type=initial n_minim_iter=7 stress="-0.005515071477028008 -0.00023587536343092332 -0.0012851408424295978 -0.00023587536343092332 0.004730785373200642 0.015787310052447885 -0.0012851408424295978 0.015787310052447885 -0.010222252177048963" pbc="T T T"
Si       7.77520290       7.67535818       5.75687583
Si       6.18710473       4.44375282       4.97292824
Si       4.77016382       5.41399442       3.75624847
Si       9.19214381       6.70511658       6.97355560
Si       7.97296298       5.82766683       8.44704351
Si       5.98934465       6.29144417       2.28276056
Si       6.32015559       5.15806513       0.51228106
Si       7.64215204       6.96104587      10.21752301
Si       4.61854608       5.53914144       5.86434335
Si       9.34376155       6.57996956       4.86546072
Si      11.26626200       7.43200322       4.69399421
Si       2.69604563       4.68710778       6.03580986
Si       4.25894270       3.58079224       5.12257372
Si       9.70336493       8.53831876       5.60723034
Si       7.15585989       8.01223089       1.88392132
Si       6.80644775       4.10688011       8.84588274
16
Lattice="8.225479392452488 1.2339928773715407 2.5270224513618167e-05 2.8886365905485554 7.584250247776094 0.8289342404315269 2.8404036619363784 3.306863514841814 9.822626863067965" Properties=species:S:1:pos:R:3 unique_starting_index=30 config_type=initial n_minim_iter=8 stress="0.00022324789711229652 0.006329402328255684 -0.006792133593677886 0.006329402328255684 0.007311295050164093 0.010319472336116258 -0.006792133593677886 0.010319472336116258 -0.003382954028224403" pbc="T T T"
Si       7.77612211       7.67962724       5.71016376
Si       6.17839754       4.44547940       4.94142261
Si       4.77142135       5.41624698       3.72448504
Si       9.18309830       6.70885966       6.92710133
Si       7.95526398       5.82635018       8.40331719
Si       5.99925567       6.29875646       2.24826919
Si       6.32757533       5.16847130       0.47951710
Si       7.62694431       6.95663534      10.17206927
Si       4.60808160       5.53700369       5.83558299
Si       9.34643805       6.58810295       4.81600338
Si      11.27123603       7.44750042       4.63518641
Si       2.68328362       4.67760622       6.01639997
Si       4.25119059       3.58029205       5.09913827
Si       9.70332906       8.54481459       5.55244811
Si       7.16712536       8.02277560       1.83771069
Si       6.78739429       4.10233104       8.81387569
16
Lattice="8.230260480325905 1.2373557343364114 -0.012473677663378927 2.8902033046476774 7.600077144422928 0.7944065978031624 2.8328692340363113 3.2739581871136765 9.802890689709692" Properties=species:S:1:pos:R:3 unique_starting_index=30 config_type=initial n_minim_iter=9 stress="-0.010204315995872685 0.0027143016950676095 -0.005141670269697997 0.0027143016950676095 -0.0028831503006186603 0.0017775698538642737 -0.005141670269697997 0.0017775698538642737 1.3377401850329035e-05" pbc="T T T"
Si       7.78196489       7.67713099       5.66503303
Si       6.17136813       4.43426008       4.91979058
Si       4.77587004       5.41677611       3.69204612
Si       9.17746298       6.69461496       6.89277749
Si       7.94502976       5.80481209       8.36295783
Si       6.00830325       6.30657898       2.22186578
Si       6.31323931       5.17002480       0.45775928
Si       7.64009371       6.94136626      10.12706433
Si       4.59675673       5.53296793       5.80535806
Si       9.35657629       6.57842314       4.77946555
Si      11.27496172       7.45334901       4.59120748
Si       2.67837130       4.65804206       5.99361613
Si       4.25202663       3.57333028       5.07957170
Si       9.70130639       8.53806078       5.50525191
Si       7.15966451       8.03129243       1.79740303
Si       6.79366851       4.08009863       8.78742058
16
Lattice="8.279543329213952 1.247463704003532 0.020954361478654995 2.918983567686361 7.602358547248494 0.7966657335292758 2.89560925846198 3.264926345529968 9.81206889879961" Properties=species:S:1:pos:R:3 unique_starting_index=30 config_type=initial n_minim_iter=10 stress="-0.006129347429729802 -0.004836204054858942 -0.0025184691598718117 -0.004836204054858942 -0.010393571461950921 -0.0006109224363156825 -0.0025184691598718117 -0.0006109224363156825 -0.008184530135956603" pbc="T T T"
Si       7.86516242       7.68039949       5.68376706
Si       6.22897373       4.43434910       4.94592193
Si       4.82516504       5.42113474       3.70541785
Si       9.26897111       6.69361386       6.92427115
Si       8.02909328       5.80576824       8.38361770
Si       6.06504287       6.30898036       2.24607129
Si       6.34234722       5.16930205       0.48213296
Si       7.75178893       6.94544655      10.14755603
Si       4.64485716       5.53362885       5.81593559
Si       9.44927900       6.58111975       4.81375340
Si      11.36973462       7.45693641       4.63071843
Si       2.72440154       4.65781219       5.99897057
Si       4.30827243       3.57696727       5.09370285
Si       9.78586372       8.53778133       5.53598614
Si       7.21090569       8.03757501       1.81862269
Si       6.88323047       4.07717358       8.81106630
16
Lattice="8.33411697463212 1.27906904737312 0.05727509980320982 2.9665480597808496 7.629456153057577 0.8161105424160929 2.9671542116884946 3.2894298962906956 9.847812441893224" Properties=species:S:1:pos:R:3 unique_starting_index=30 config_type=initial n_minim_iter=11 stress="-0.00081755348135393 -0.006629662119597383 0.0075111956447310065 -0.006629662119597383 -0.002387469274999684 -0.004271261003421765 0.0075111956447310065 -0.004271261003421765 -0.0001394091775774106" pbc="T T T"
Si       7.96934481       7.72847264       5.72920025
Si       6.29847443       4.46948245       4.99199784
Si       4.88909718       5.45505196       3.74069153
Si       9.37872206       6.74290314       6.98050656
Si       8.12523664       5.85063139       8.43129808
Si       6.14258261       6.34732371       2.28990000
Si       6.39367209       5.20341904       0.51810354
Si       7.87414716       6.99453605      10.20309454
Si       4.70303178       5.56641478       5.84814652
Si       9.56478746       6.63154031       4.87305156
Si      11.47921270       7.51458399       4.69221242
Si       2.78860654       4.68337110       6.02898567
Si       4.37419845       3.61079243       5.12639089
Si       9.89362080       8.58716267       5.59480720
Si       7.27914041       8.07922793       1.85930733
Si       6.98867883       4.11872716       8.86189075
16
Lattice="8.382270400316813 1.308370696275297 0.07718824132021178 3.0121358213169147 7.629912714543421 0.8326012388605163 3.0166184430439382 3.3075408991675403 9.872382549067984" Properties=species:S:1:pos:R:3 unique_starting_index=30 config_type=initial n_minim_iter=12 stress="0.01023763366938677 0.0033948868784767724 0.0020243321283340767 0.0033948868784767724 0.0065718889861892706 -0.007279349000318954 0.0020243321283340767 -0.007279349000318954 0.003108647464014051" pbc="T T T"
Si       8.05843051       7.75015634       5.76154448
Si       6.35259415       4.49566797       5.02062755
Si       4.94508757       5.47000223       3.76751160
Si       9.46593709       6.77582208       7.01466043
Si       8.20051984       5.88232471       8.46297770
Si       6.21050482       6.36349960       2.31919433
Si       6.44139101       5.22152157       0.54349242
Si       7.96963365       7.02430274      10.23867961
Si       4.75456359       5.58373764       5.87370091
Si       9.65646108       6.66208667       4.90847112
Si      11.57367726       7.55186783       4.72623236
Si       2.83734740       4.69395648       6.05593967
Si       4.42659401       3.63038450       5.14654530
Si       9.98443065       8.61543981       5.63562673
Si       7.34254919       8.09550156       1.88860486
Si       7.06847548       4.15032275       8.89356717
16
Lattice="8.410347941518431 1.3239729429041072 0.09874010136687446 3.03721288840605 7.6367423316229885 0.8536775199342912 3.055100763152324 3.3311271220437195 9.890618226173904" Properties=species:S:1:pos:R:3 unique_starting_index=30 config_type=initial n_minim_iter=13 stress="0.0030561285656205586 0.004212312810835313 -0.0006630521149304042 0.004212312810835313 0.0035114555284357237 -0.004738733369081532 -0.0006630521149304042 -0.004738733369081532 0.00424867137615427" pbc="T T T"
Si       8.11657556       7.76955258       5.79341297
Si       6.38608603       4.52228981       5.04962288
Si       4.98350616       5.48612914       3.79331429
Si       9.51915543       6.80571326       7.04972155
Si       8.24839966       5.91749067       8.49017096
Si       6.25426193       6.37435173       2.35286489
Si       6.46387734       5.23787520       0.57529678
Si       8.03878426       7.05396720      10.26773907
Si       4.78248213       5.60450028       5.90225984
Si       9.72017946       6.68734211       4.94077601
Si      11.62202493       7.57927062       4.76127588
Si       2.88063666       4.71257177       6.08175997
Si       4.46344338       3.64947753       5.16401720
Si      10.03921821       8.64236487       5.67901864
Si       7.37444674       8.11447065       1.92144669
Si       7.12821486       4.17737174       8.92158916
16
Lattice="8.442786295873834 1.341799641089875 0.10562666422864982 3.070591388736361 7.601336054207455 0.8737780032844001 3.079553368822369 3.3449482061736386 9.90273576036022" Properties=species:S:1:pos:R:3 unique_starting_index=30 config_type=initial n_minim_iter=14 stress="0.02476684124243355 0.003448086492095785 -0.0023683305340879476 0.003448086492095785 0.010647286589666391 -0.0024412834528217057 -0.0023683305340879476 -0.0024412834528217057 0.0073695255166852745" pbc="T T T"
Si       8.16488068       7.75071291       5.80457326
Si       6.42805038       4.53737100       5.07756717
Si       5.01411756       5.48212924       3.81399922
Si       9.57881349       6.80595467       7.06814121
Si       8.28497389       5.93661385       8.49555553
Si       6.30795717       6.35147005       2.38658490
Si       6.49061575       5.23260889       0.59792709
Si       8.10231530       7.05547502      10.28421334
Si       4.80728092       5.60841143       5.92293544
Si       9.78565013       6.67967247       4.95920499
Si      11.67932774       7.57527448       4.77306086
Si       2.91360331       4.71280942       6.10907956
Si       4.49652369       3.65293807       5.17061379
Si      10.09640737       8.63514584       5.71152664
Si       7.41030922       8.09769754       1.95080119
Si       7.18262184       4.19038636       8.93133924
16
Lattice="8.449884566690786 1.3637812194198584 0.09498613730560906 3.0990470773110625 7.556925638454783 0.9041671625731512 3.0728901395602035 3.377744441927205 9.914891089644042" Properties=species:S:1:pos:R:3 unique_starting_index=30 config_type=initial n_minim_iter=15 stress="0.010494722842576224 0.0003253590824100353 -0.005201208118513847 0.0003253590824100353 0.004445433218984973 0.002542883087908131 -0.005201208118513847 0.002542883087908131 0.004991471075021997" pbc="T T T"
Si       8.18274463       7.73300799       5.80364663
Si       6.43907716       4.56544331       5.11039775
Si       5.02279784       5.48343036       3.83991989
Si       9.59902395       6.81502094       7.07412450
Si       8.27605736       5.97727209       8.47746523
Si       6.34576443       6.32117921       2.43657916
Si       6.49321697       5.22239869       0.61296918
Si       8.12860482       7.07605261      10.30107521
Si       4.81021218       5.62348460       5.94131389
Si       9.81160961       6.67496670       4.97273050
Si      11.68749451       7.58103457       4.76905226
Si       2.93432728       4.71741673       6.14499213
Si       4.51222562       3.67417600       5.17498692
Si      10.10959617       8.62427529       5.73905747
Si       7.41986077       8.08629910       1.98089476
Si       7.20196102       4.21215220       8.93314963
16
Lattice="8.472919347326444 1.3673260118607988 0.0997505445753188 3.116293400197652 7.516190021133108 0.9488986009805097 3.081824774250416 3.4215385684536965 9.918049308329628" Properties=species:S:1:pos:R:3 unique_starting_index=30 config_type=initial n_minim_iter=16 stress="0.0032102644686066786 -0.005523168998512931 -0.0028951484853885563 -0.005523168998512931 0.010525055436197509 0.009723116630915962 -0.0028951484853885563 0.009723116630915962 0.007207871253120931" pbc="T T T"
Si       8.21235307       7.71550949       5.81378608
Si       6.45868445       4.58954511       5.15291237
Si       5.03220916       5.48383962       3.86883535
Si       9.63882836       6.82121498       7.09786311
Si       8.28307753       6.02247602       8.47079588
Si       6.38795999       6.28257858       2.49590257
Si       6.50516717       5.21460779       0.65112137
Si       8.16587035       7.09044681      10.31557708
Si       4.82935927       5.65180476       5.97073272
Si       9.84167825       6.65324985       4.99596573
Si      11.71184647       7.57552746       4.79530211
Si       2.95919105       4.72952714       6.17139635
Si       4.54150924       3.70417565       5.18373868
Si      10.12952828       8.60087895       5.78295978
Si       7.42748531       8.07154873       2.03313238
Si       7.24355221       4.23350587       8.93356607
16
Lattice="8.542683619742974 1.3885848506518683 0.043326764544706985 3.1689321079624104 7.418079980233864 1.0685975063770938 3.023810824764566 3.577151498372661 9.903324359824158" Properties=species:S:1:pos:R:3 unique_starting_index=30 config_type=initial n_minim_iter=17 stress="0.01971955162834337 -0.007017306047049082 0.005751010287823683 -0.007017306047049082 0.037078226407484156 0.007872161316463804 0.005751010287823683 0.007872161316463804 0.0349412683496213" pbc="T T T"
Si       8.24321091       7.67822626       5.78077296
Si       6.49221565       4.70559007       5.23447567
Si       5.01213447       5.50256831       3.93367866
Si       9.72329208       6.88124802       7.08156997
Si       8.21467190       6.19270559       8.38561871
Si       6.52075465       6.19111074       2.62962992
Si       6.52989177       5.21065979       0.72724878
Si       8.20553479       7.17315654      10.28799985
Si       4.82852508       5.77639535       6.03225458
Si       9.90690147       6.60742098       4.98299405
Si      11.74188913       7.59963498       4.77853697
Si       2.99353742       4.78418135       6.23671166
Si       4.56884274       3.83627279       5.17996891
Si      10.16658381       8.54754354       5.83527972
Si       7.41732798       8.05361692       2.14160947
Si       7.31809857       4.33019941       8.87363916
16
Lattice="8.544516419803081 1.3894386519940847 0.03517790486555358 3.170537470717747 7.411844410536954 1.0773354072249737 3.01296422421448 3.590898072919482 9.897232814783475" Properties=species:S:1:pos:R:3 unique_starting_index=30 config_type=initial n_minim_iter=18 stress="0.016331443818626078 -0.009205430365369431 0.007544470033212324 -0.009205430365369431 0.025254179673958224 0.01712063728120216 0.007544470033212324 0.01712063728120216 0.02689465734595687" pbc="T T T"
Si       8.23862584       7.67625616       5.77361112
Si       6.48939228       4.71592498       5.23613501
Si       5.00490720       5.50441609       3.93498241
Si       9.72311092       6.88776505       7.07476372
Si       8.20220857       6.20745090       8.37390118
Si       6.52580954       6.18473023       2.63584494
Si       6.52910267       5.21039695       0.73069788
Si       8.19891544       7.18178418      10.27904825
Si       4.82351424       5.78700750       6.03274781
Si       9.90450387       6.60517363       4.97699832
Si      11.73802637       7.60269529       4.77235748
Si       2.98999174       4.78948585       6.23738864
Si       4.56525370       3.84849932       5.17603976
Si      10.16276442       8.54368181       5.83370636
Si       7.41167107       8.05292727       2.14705715
Si       7.31634705       4.33925387       8.86268898
16
Lattice="8.508903863190774 1.3774812443198683 -0.015770253358238177 3.1404090480758673 7.4295336849953255 1.0486996400058808 2.9354821730821845 3.5829311611540238 9.843578530038094" Properties=species:S:1:pos:R:3 unique_starting_index=30 config_type=initial n_minim_iter=19 stress="-0.003887361167883432 0.002408472396972688 -0.003982122461393626 0.002408472396972688 0.02844261865557484 0.007308349809433384 -0.003982122461393626 0.007308349809433384 0.010472386385830942" pbc="T T T"
Si       8.15749664       7.67189645       5.69933937
Si       6.42729844       4.71804964       5.17716854
Si       4.94523191       5.50839719       3.88236823
Si       9.63956317       6.88154890       6.99413968
Si       8.10787702       6.20397720       8.29540447
Si       6.47691806       6.18596889       2.58110344
Si       6.49525592       5.21515105       0.68630584
Si       8.08953917       7.17479504      10.19020207
Si       4.76533341       5.79275062       5.97746237
Si       9.81946168       6.59719547       4.89904555
Si      11.65776590       7.60077037       4.69059566
Si       2.92702918       4.78917572       6.18591225
Si       4.50122584       3.85425650       5.13359509
Si      10.08356924       8.53568959       5.74291282
Si       7.35064755       8.06115591       2.08872803
Si       7.23414754       4.32879018       8.78777989
16
Lattice="8.545421521750335 1.3757614758988295 0.01598488149994223 3.1537916748098707 7.430130544809986 1.0520245126147225 2.987224485173164 3.574158981448921 9.838593850915448" Properties=species:S:1:pos:R:3 unique_starting_index=30 config_type=initial n_minim_iter=20 stress="-0.005464534978717427 0.003982708966034348 0.005173627525100007 0.003982708966034348 0.003487363630076366 -0.009078822966852923 0.005173627525100007 -0.009078822966852923 -0.01661589504427257" pbc="T T T"
Si       8.22323315       7.65611267       5.72335426
Si       6.46320454       4.72393833       5.18324899
Si       4.98152663       5.50526186       3.88135946
Si       9.70491106       6.87478915       7.02524379
Si       8.17977602       6.20174241       8.31519085
Si       6.50666166       6.17830859       2.59141240
Si       6.52786462       5.21201878       0.70873888
Si       8.15857306       7.16803222      10.19786437
Si       4.81207578       5.78202775       5.97403643
Si       9.87436191       6.59802326       4.93256682
Si      11.73383129       7.59403164       4.72388535
Si       2.95260639       4.78601936       6.18271790
Si       4.53562056       3.85848647       5.14221599
Si      10.15081713       8.52156454       5.76438726
Si       7.37644435       8.05028225       2.10617475
Si       7.30999333       4.32976875       8.80042850
16
Lattice="8.605972845818863 1.404272155098713 0.04285340881153159 3.2034396911274388 7.430531109986324 1.070566948039474 3.0492988551476463 3.590832816140841 9.874320209348351" Properties=species:S:1:pos:R:3 unique_starting_index=30 config_type=initial n_minim_iter=21 stress="0.0018942737585982007 0.005011659839877853 0.0003633193196241319 0.005011659839877853 -7.106931028355348e-05 -0.0006308942559452045 0.0003633193196241319 -0.0006308942559452045 0.0008259667507960802" pbc="T T T"
Si       8.33308269       7.66810393       5.78078004
Si       6.52562870       4.75753215       5.20696053
Si       5.04443228       5.52446661       3.90836202
Si       9.81427911       6.90116947       7.07937855
Si       8.27012092       6.24088079       8.35979939
Si       6.58859047       6.18475529       2.62794118
Si       6.57503760       5.21716660       0.73724473
Si       8.28367379       7.20846948      10.25049583
Si       4.86655985       5.80126722       6.00615906
Si       9.99215154       6.62436886       4.98158150
Si      11.85093375       7.62588767       4.76774341
Si       3.00777764       4.79974841       6.21999716
Si       4.59233797       3.88148652       5.16948094
Si      10.26637342       8.54414956       5.81825963
Si       7.43365870       8.05811413       2.13248628
Si       7.42505269       4.36752195       8.85525428
