12
Lattice="11.065313463283132 0.5738344940500081 0.9036410034362935 4.909151067808208 5.349806261489283 -0.1480905031467358 6.115884323981412 -0.7637890403221514 6.3207267217811935" Properties=species:S:1:pos:R:3 unique_starting_index=78 config_type=initial n_minim_iter=1 energy=-1959.006822048516 free_energy=-1959.006822048516 pbc="T T T"
Si       7.50948030       2.47650314       3.81029259
Si      14.24357418       1.99469758       2.85041667
Si      17.82136355       5.81093169       2.11011424
Si       9.23657899       2.01696732       2.75861091
Si       7.72527965       3.51144550       1.97039719
Si      12.22593546       4.46593175       5.51423108
Si      10.96501462       1.15062034       1.77844493
Si      12.73108717       2.65259344       6.48337778
Si       9.01973955       0.32508396       1.46994202
Si      13.07474805       2.20563999       1.08331579
Si       9.08889152       2.28228612       5.21676879
Si      10.69588444       3.20809915       6.24684304
12
Lattice="11.068914989922401 0.5912817188020317 0.9152728618457924 4.9173881874116665 5.369105941150352 -0.14025994829236454 6.121961126420602 -0.753179945551729 6.330567721836501" Properties=species:S:1:pos:R:3 unique_starting_index=78 config_type=initial n_minim_iter=2 stress="0.012286031053613658 -0.0009958626069772848 0.0007954355403256819 -0.0009958626069772848 -0.000920624739739549 -0.00034799446324747533 0.0007954355403256819 -0.00034799446324747533 0.005338650431397783" pbc="T T T"
Si       7.51794908       2.49533675       3.82169626
Si      14.25167486       2.02135817       2.86725158
Si      17.83429556       5.85046855       2.13252866
Si       9.24356780       2.03636471       2.77067898
Si       7.73359508       3.53179964       1.98114967
Si      12.23929464       4.49712778       5.53246457
Si      10.97082113       1.16938469       1.79038365
Si      12.74308454       2.68021632       6.50191182
Si       9.02315975       0.33952847       1.48010874
Si      13.08130380       2.23009247       1.09816762
Si       9.09834583       2.30336771       5.23023843
Si      10.70877442       3.23438245       6.26359657
12
Lattice="11.049558588373907 0.5977952585109257 0.9164161864422368 4.911427812489977 5.3758232599150775 -0.13832096110671652 6.111514794686008 -0.7491631728513206 6.327421706716772" Properties=species:S:1:pos:R:3 unique_starting_index=78 config_type=initial n_minim_iter=3 stress="-0.011608991685276099 0.005318094736820613 -0.0030867393616135427 0.005318094736820613 -0.004166975906410672 -0.0002887696770245885 -0.0030867393616135427 -0.0002887696770245885 -0.00493477544878568" pbc="T T T"
Si       7.50652382       2.50249206       3.82106413
Si      14.22713209       2.03091031       2.86745842
Si      17.80586070       5.86482288       2.13573173
Si       9.22836173       2.04333247       2.77067751
Si       7.72207124       3.53921512       1.98149636
Si      12.22012501       4.50859333       5.53177112
Si      10.95255964       1.17539468       1.79004275
Si      12.72242837       2.68995521       6.50067118
Si       9.00755799       0.34529097       1.48116526
Si      13.05957786       2.23941270       1.10023776
Si       9.08376528       2.31106808       5.22858522
Si      10.69255387       3.24401216       6.26210297
12
Lattice="11.043633484854725 0.5898847407904637 0.9261986026918048 4.903977524903964 5.382793599887919 -0.13214118666876168 6.114257611593929 -0.7537706417792904 6.331771326230592" Properties=species:S:1:pos:R:3 unique_starting_index=78 config_type=initial n_minim_iter=4 stress="-0.006676603478909145 0.0005308469924904349 0.004288660994890601 0.0005308469924904349 0.003836031778210203 -0.005772499952550824 0.004288660994890601 -0.005772499952550824 -0.0014609484816559956" pbc="T T T"
Si       7.50366181       2.50418470       3.82820308
Si      14.21793016       2.02304521       2.87859830
Si      17.79442921       5.86222074       2.15603961
Si       9.22334718       2.04026104       2.77884638
Si       7.71709301       3.54121952       1.98819674
Si      12.21323340       4.51025964       5.54269418
Si      10.94694794       1.16573079       1.79626634
Si      12.71880158       2.68518860       6.51317519
Si       9.00389286       0.34029636       1.49120649
Si      13.05229122       2.23479584       1.11350435
Si       9.08081366       2.30994870       5.23621726
Si      10.68927707       3.24451841       6.27203340
12
Lattice="11.049533773374657 0.5930596734542578 0.9178923750569443 4.90758919029804 5.384254059132317 -0.12508253822709203 6.112381846460028 -0.7399732147468217 6.325128863103483" Properties=species:S:1:pos:R:3 unique_starting_index=78 config_type=initial n_minim_iter=5 stress="-0.002933657046266075 0.0031091855607714345 -0.0003554642507613728 0.0031091855607714345 0.00927759893122317 0.007343429784847891 -0.0003554642507613728 0.007343429784847891 -0.003429412694431155" pbc="T T T"
Si       7.50514683       2.51520800       3.82720388
Si      14.22300873       2.03069719       2.86956018
Si      17.80424397       5.86920675       2.15441212
Si       9.22628375       2.04705738       2.77488940
Si       7.72102013       3.54759574       1.98802208
Si      12.21675403       4.52423765       5.54121674
Si      10.95209629       1.16821890       1.78714454
Si      12.72100919       2.70004050       6.50897470
Si       9.00811373       0.34574841       1.48634652
Si      13.05985880       2.23963992       1.10790179
Si       9.08186718       2.32266375       5.23297676
Si      10.69033050       3.25994570       6.26980775
12
Lattice="11.063556020915689 0.6036793841861424 0.9135068635768789 4.919187908719588 5.378839548473287 -0.12390534846574904 6.1155633338711874 -0.72724193117274 6.3333376545079325" Properties=species:S:1:pos:R:3 unique_starting_index=78 config_type=initial n_minim_iter=6 stress="0.0018770481322048687 0.005604989928640904 7.065408217431774e-05 0.005604989928640904 -0.00328864668049214 -0.0004143825085774149 7.065408217431774e-05 -0.0004143825085774149 0.0006457112402749986" pbc="T T T"
Si       7.51435475       2.52481740       3.83272221
Si      14.23961532       2.04314580       2.86708002
Si      17.83025751       5.87412259       2.15410120
Si       9.23746745       2.05317500       2.77534502
Si       7.73527934       3.55163016       1.98737862
Si      12.23561223       4.53366625       5.54840402
Si      10.96693729       1.17221658       1.78016449
Si      12.73503559       2.71287426       6.51922309
Si       9.01880328       0.35863579       1.48977253
Si      13.07749084       2.24987813       1.10467301
Si       9.09318241       2.33250582       5.23905765
Si      10.70261399       3.26986002       6.27809540
12
Lattice="11.057942587039062 0.5961047895439406 0.9127000497610405 4.9123998860600935 5.3812349056147415 -0.11751261876755395 6.111828764193136 -0.7241826288900863 6.339892560068474" Properties=species:S:1:pos:R:3 unique_starting_index=78 config_type=initial n_minim_iter=7 stress="0.00657711718556821 0.0009052757729211629 -0.006520320241879874 0.0009052757729211629 0.009794439803235157 -0.0012215399020197894 -0.006520320241879874 -0.0012215399020197894 0.007521720710471617" pbc="T T T"
Si       7.50764500       2.53160729       3.84011904
Si      14.22894163       2.03645757       2.86977725
Si      17.81569417       5.86680767       2.16123790
Si       9.23012459       2.05017208       2.77870246
Si       7.73143758       3.55300566       1.99103530
Si      12.22867509       4.53893862       5.56077046
Si      10.96118714       1.16308218       1.77782995
Si      12.72372599       2.71461914       6.53237630
Si       9.01385855       0.35660850       1.49635335
Si      13.06796425       2.24271052       1.10550731
Si       9.08735357       2.33665527       5.24737955
Si      10.69175533       3.27132030       6.28725994
12
Lattice="11.053765458647076 0.5913943248042841 0.94229064480146 4.9060193622857655 5.3732630159308785 -0.08974857681034751 6.124858055929332 -0.7091161649700904 6.353466731740286" Properties=species:S:1:pos:R:3 unique_starting_index=78 config_type=initial n_minim_iter=8 stress="0.006901714849203291 -0.004530158177501353 0.0035925690191962404 -0.004530158177501353 -0.0029873500582593177 0.004543753344027295 0.0035925690191962404 0.004543753344027295 -0.0012053123375249753" pbc="T T T"
Si       7.51168360       2.54157786       3.86630784
Si      14.22446313       2.03241269       2.91093689
Si      17.80728128       5.85460586       2.22251584
Si       9.22984584       2.04884279       2.80660564
Si       7.73415817       3.55126870       2.01835599
Si      12.23755264       4.54500215       5.60654652
Si      10.95896672       1.15712315       1.80463226
Si      12.72935800       2.72346126       6.57620260
Si       9.01272930       0.35760033       1.52744281
Si      13.06001989       2.23528437       1.14423007
Si       9.09538330       2.34548816       5.27633904
Si      10.69712072       3.27819707       6.32155154
12
Lattice="11.028211512563198 0.6185502009549252 0.9919519039325202 4.903006924008123 5.386775127075082 -0.04763451609917868 6.131732521939043 -0.6698675069217072 6.395827086686018" Properties=species:S:1:pos:R:3 unique_starting_index=78 config_type=initial n_minim_iter=9 stress="0.004571382653896836 0.0037137054566961664 0.0027272278204815022 0.0037137054566961664 -0.003262426183051722 -0.0043840220433225725 0.0027272278204815022 -0.0043840220433225725 0.009366119164392703" pbc="T T T"
Si       7.51505714       2.59261707       3.92539879
Si      14.18872021       2.06606120       2.98172112
Si      17.78180389       5.89903649       2.32372167
Si       9.21728528       2.07626323       2.85819349
Si       7.74313423       3.57989037       2.05965188
Si      12.25244036       4.59851525       5.69566707
Si      10.93585845       1.18310403       1.85036183
Si      12.71952604       2.78072748       6.67411097
Si       8.99699222       0.38386733       1.59124051
Si      13.02627560       2.26709904       1.20939717
Si       9.09730576       2.39359584       5.33256841
Si      10.68679593       3.32913682       6.39261099
12
Lattice="11.019479572113115 0.6009157116458408 1.0659908875071873 4.8833437094196155 5.3981332080626565 0.021961692774681765 6.166617556180075 -0.6429384178247093 6.425240309980046" Properties=species:S:1:pos:R:3 unique_starting_index=78 config_type=initial n_minim_iter=10 stress="0.020193396548203412 -0.008822762260962508 -0.009865380822688204 -0.008822762260962508 0.00035912159276503227 -0.006466189201996474 -0.009865380822688204 -0.006466189201996474 -0.003033272654319304" pbc="T T T"
Si       7.53242607       2.64685055       4.00105056
Si      14.16127955       2.04309461       3.07566547
Si      17.75958944       5.88441763       2.46892045
Si       9.21519325       2.07647155       2.92638132
Si       7.76794517       3.59210662       2.11068825
Si      12.29071410       4.62690710       5.80706799
Si      10.93547520       1.16510066       1.91502853
Si      12.72621346       2.80986998       6.79998979
Si       8.98661947       0.37073995       1.68890953
Si      12.99967396       2.25128050       1.30725318
Si       9.11492625       2.42807993       5.38703793
Si      10.69777283       3.37143688       6.46529787
12
Lattice="10.945450781604997 0.5758547572741767 1.1697997182400397 4.830056521524047 5.396090455081147 0.10822246547777785 6.177330587291422 -0.6088919862798317 6.518703254597778" Properties=species:S:1:pos:R:3 unique_starting_index=78 config_type=initial n_minim_iter=11 stress="0.009062348760954356 -0.010602011723761484 0.003444209132429039 -0.010602011723761484 0.009925683331388517 0.0019064440949235011 0.003444209132429039 0.0019064440949235011 0.03239214854841949" pbc="T T T"
Si       7.50696588       2.69951437       4.12466476
Si      14.05287139       2.01186846       3.22372973
Si      17.62789498       5.84988177       2.67839612
Si       9.16244802       2.07259594       3.03992192
Si       7.74758663       3.59441834       2.19997232
Si      12.26204986       4.64433477       5.98879547
Si      10.87163380       1.13934756       2.02074742
Si      12.66458175       2.83333959       7.00878590
Si       8.92399998       0.34856038       1.81613348
Si      12.89575226       2.22580664       1.44195879
Si       9.09274018       2.46125630       5.51213748
Si      10.65353105       3.41442181       6.61498746
12
Lattice="10.9223383648915 0.5870367043157159 1.2474620351278907 4.817608485225869 5.421282448333295 0.17256576358486397 6.205201760787893 -0.5758564055749982 6.533785061246787" Properties=species:S:1:pos:R:3 unique_starting_index=78 config_type=initial n_minim_iter=12 stress="0.024874089735149377 -0.005788480473701266 0.005882480884860892 -0.005788480473701266 0.02484583204676816 -0.0017570332476117428 0.005882480884860892 -0.0017570332476117428 0.02445803891068473" pbc="T T T"
Si       7.51816957       2.77226675       4.18226379
Si      14.01279859       2.02620985       3.31434716
Si      17.59454597       5.87788323       2.82433787
Si       9.15600149       2.09542868       3.10385326
Si       7.77107533       3.62213585       2.24888370
Si      12.29898018       4.69801039       6.07373246
Si      10.85632508       1.14930672       2.09002018
Si      12.66047680       2.88085187       7.11605892
Si       8.90089069       0.35016232       1.91110846
Si      12.85824525       2.24494905       1.54010968
Si       9.11686460       2.51354524       5.56187121
Si      10.65890306       3.48048712       6.66943872
12
Lattice="10.87736180679368 0.5919255418306729 1.311652413258389 4.793745574820125 5.432465951796417 0.23175379674511523 6.214060289962812 -0.5426307497315926 6.544669850236978" Properties=species:S:1:pos:R:3 unique_starting_index=78 config_type=initial n_minim_iter=13 stress="0.03186498324978207 -0.0125906978710841 0.006284213726053292 -0.0125906978710841 0.027169645059475524 0.0018017789149974198 0.006284213726053292 0.0018017789149974198 0.03202559654101381" pbc="T T T"
Si       7.51154711       2.83659279       4.23646274
Si      13.94674230       2.03390318       3.39311587
Si      17.52590887       5.88232660       2.95679446
Si       9.13018486       2.10981542       3.15843373
Si       7.77449522       3.63850570       2.28953937
Si      12.30263135       4.73913621       6.14407505
Si      10.80949340       1.15684214       2.14742785
Si      12.61774216       2.91737434       7.20632376
Si       8.85943802       0.34614025       1.99454329
Si      12.79293458       2.25020098       1.61628934
Si       9.11187060       2.55532640       5.60158215
Si      10.64539041       3.53669480       6.71755090
12
Lattice="10.863582197362852 0.6037932061797796 1.3469923228924732 4.789266153657989 5.434261767207497 0.27507378113070574 6.226712440710574 -0.5093267055290888 6.512493353867222" Properties=species:S:1:pos:R:3 unique_starting_index=78 config_type=initial n_minim_iter=14 stress="0.028971605511477257 -0.006985817953815805 0.008313126588756397 -0.006985817953815805 0.015495258446210615 -0.0053632394395727225 0.008313126588756397 -0.0053632394395727225 0.015627327345861353" pbc="T T T"
Si       7.51969154       2.89396617       4.25836209
Si      13.92440291       2.04978814       3.43271992
Si      17.50387053       5.89417451       3.04142892
Si       9.13024674       2.12646535       3.18060045
Si       7.79639984       3.64937278       2.29402240
Si      12.32512304       4.77420119       6.15804329
Si      10.80231474       1.17193942       2.17123464
Si      12.60741545       2.94382197       7.22552718
Si       8.84014053       0.33933626       2.04455264
Si      12.76606356       2.25688422       1.64882115
Si       9.12616869       2.59065094       5.59948427
Si      10.64666927       3.58981041       6.70729660
12
Lattice="10.86731503220309 0.6183765673827352 1.3316422162100647 4.798036215739057 5.448614918895233 0.26769982699411055 6.2228435228109635 -0.5078406871697373 6.46449332512823" Properties=species:S:1:pos:R:3 unique_starting_index=78 config_type=initial n_minim_iter=15 stress="-0.0008057578174036532 -0.00856924713663599 0.0017574270528230998 -0.00856924713663599 0.004741517323002895 -0.010841450063666516 0.0017574270528230998 -0.010841450063666516 -0.007525867324681179" pbc="T T T"
Si       7.51904838       2.91892448       4.22599601
Si      13.92653333       2.06971257       3.40309642
Si      17.50686653       5.92210063       3.01261748
Si       9.13783493       2.13750439       3.15352035
Si       7.81176763       3.65890571       2.25877349
Si      12.33011381       4.78440314       6.10289911
Si      10.80025457       1.18908454       2.14612294
Si      12.60252550       2.95596983       7.16729885
Si       8.84494948       0.34332303       2.04004386
Si      12.77251116       2.27518480       1.62780462
Si       9.13730623       2.60060996       5.55799012
Si      10.65359813       3.61224200       6.64730624
12
Lattice="10.901859249063119 0.6459001665123942 1.3190975969347956 4.827508386368591 5.440909635546229 0.26436796395578044 6.232231019263895 -0.4857700157184897 6.458312327689768" Properties=species:S:1:pos:R:3 unique_starting_index=78 config_type=initial n_minim_iter=16 stress="0.00031354745786375956 -0.002564485072643922 -0.00726727989888298 -0.002564485072643922 -0.008181105043759724 -0.010575285121108273 -0.00726727989888298 -0.010575285121108273 -0.008020437007320224" pbc="T T T"
Si       7.54595878       2.94331516       4.21945072
Si      13.96572191       2.09822697       3.38767270
Si      17.56508116       5.95263938       2.99900803
Si       9.16978893       2.15760403       3.14699465
Si       7.85298332       3.66143382       2.24476052
Si      12.37326250       4.80412013       6.08828596
Si      10.83364619       1.21497157       2.12774748
Si      12.63379073       2.97969150       7.15591932
Si       8.87550526       0.36454520       2.04548430
Si      12.81897296       2.29776399       1.61412984
Si       9.16842541       2.61309805       5.54867154
Si      10.69052087       3.63170342       6.63116603
12
Lattice="10.927678446430368 0.6767840243923189 1.3069842631865138 4.8538386181644215 5.421767321329771 0.279195885708409 6.236054410874486 -0.43927011601551386 6.445877220065253" Properties=species:S:1:pos:R:3 unique_starting_index=78 config_type=initial n_minim_iter=17 stress="-0.0055050530765468645 -0.007429737612879937 -0.012880151378810432 -0.007429737612879937 -0.00514729291217649 0.003512339163110891 -0.012880151378810432 0.003512339163110891 -0.009102866177583187" pbc="T T T"
Si       7.57714399       2.99379086       4.22265016
Si      13.99198611       2.13368785       3.38124716
Si      17.59381146       5.96900401       3.00697746
Si       9.19519369       2.19298294       3.15130624
Si       7.89606341       3.65720799       2.22999611
Si      12.40238222       4.83345353       6.07992963
Si      10.85205771       1.24783819       2.10212688
Si      12.65880776       3.02325461       7.16167597
Si       8.91115611       0.39007987       2.07086799
Si      12.85868941       2.32413338       1.60295738
Si       9.19038317       2.63163272       5.53869732
Si      10.71060259       3.66502880       6.60503315
12
Lattice="10.96591825317902 0.7218229390241804 1.2764919591052346 4.894316575141189 5.423414180159533 0.26187016636807753 6.236104156689878 -0.4140013912181163 6.436676625059586" Properties=species:S:1:pos:R:3 unique_starting_index=78 config_type=initial n_minim_iter=18 stress="-0.004030931914104133 0.004696265810541311 -0.015977522776532735 0.004696265810541311 0.0023736891011047396 0.009786636579352297 -0.015977522776532735 0.009786636579352297 -0.0022900347082600117" pbc="T T T"
Si       7.60926960       3.02610301       4.20013150
Si      14.03956600       2.17610731       3.34926938
Si      17.66769016       6.02510368       2.96297456
Si       9.22933271       2.23839279       3.13352685
Si       7.93527345       3.67338177       2.20410593
Si      12.43814440       4.86383992       6.05291403
Si      10.88623933       1.29710591       2.06535960
Si      12.69171697       3.06362797       7.13250466
Si       8.94728237       0.41995876       2.05586234
Si      12.91046882       2.37045794       1.56351502
Si       9.22326629       2.65272636       5.51344746
Si      10.74705831       3.69128958       6.57057454
12
Lattice="10.999059517060502 0.7469818323936634 1.275465805925276 4.922043415404013 5.421520461889978 0.2527107123760583 6.251261449159148 -0.40661044075471686 6.442237064035112" Properties=species:S:1:pos:R:3 unique_starting_index=78 config_type=initial n_minim_iter=19 stress="-0.010946994557424015 0.002681574926809446 -0.0015288618405414397 0.002681574926809446 -0.001983501510449991 0.0012166108290925207 -0.0015288618405414397 0.0012166108290925207 0.0054067570127780615" pbc="T T T"
Si       7.64326094       3.04962563       4.19543673
Si      14.08277472       2.18613263       3.35335117
Si      17.71833349       6.05771344       2.95451502
Si       9.26456707       2.26547209       3.13309239
Si       7.96971437       3.68188379       2.19366270
Si      12.47933691       4.87437899       6.05434041
Si      10.91094835       1.32586148       2.06234214
Si      12.72828415       3.06459862       7.13465736
Si       8.98855932       0.43301174       2.06755619
Si      12.95520252       2.39443319       1.55644981
Si       9.26025120       2.64902690       5.50481956
Si      10.78836898       3.70323938       6.56335419
12
Lattice="11.043089024534135 0.7758203884479222 1.2958228416154605 4.955385735341875 5.409515345279351 0.2586414260256582 6.283705147344242 -0.38932925233435656 6.449992166552817" Properties=species:S:1:pos:R:3 unique_starting_index=78 config_type=initial n_minim_iter=20 stress="0.0023750857908174158 0.008951616133377789 0.01035165270235313 0.008951616133377789 0.0019942957606926435 0.0017089928083637899 0.01035165270235313 0.0017089928083637899 0.010550011515329421" pbc="T T T"
Si       7.69391387       3.07467557       4.20799504
Si      14.14140667       2.20112562       3.37918932
Si      17.79258135       6.07943422       2.98460172
Si       9.31472826       2.28607995       3.14503206
Si       8.01649309       3.69158669       2.19590217
Si      12.54439973       4.88300125       6.07224130
Si      10.95294176       1.36224132       2.07975052
Si      12.78392417       3.07337693       7.15655147
Si       9.03068562       0.45088679       2.10097973
Si      13.01897808       2.42441303       1.58006895
Si       9.31729572       2.65174840       5.51250262
Si      10.84881397       3.71189511       6.56655770
12
Lattice="11.13430410691945 0.7828144712477351 1.2677477207209373 5.003999087444195 5.37081948915162 0.22947752513687264 6.3194211804696785 -0.39596147466196446 6.431910226528065" Properties=species:S:1:pos:R:3 unique_starting_index=78 config_type=initial n_minim_iter=21 stress="0.006948059591828412 0.01592393270494847 0.014276516395828097 0.01592393270494847 0.017073605200394432 0.0030105165666719754 0.014276516395828097 0.0030105165666719754 0.0032505414897601686" pbc="T T T"
Si       7.77511082       3.07634271       4.17587395
Si      14.26523051       2.17143316       3.34817171
Si      17.91267230       6.04515342       2.92044999
Si       9.39666387       2.29628900       3.11756940
Si       8.07267444       3.67630811       2.15589529
Si      12.61914784       4.84445449       6.02372876
Si      11.02705165       1.38024429       2.03830264
Si      12.85775000       3.02748713       7.11409933
Si       9.12064205       0.43564714       2.09743942
Si      13.15289420       2.42096277       1.55025008
Si       9.40024023       2.60957199       5.46858151
Si      10.92855347       3.67316815       6.51237426
