22
Lattice="5.536837204598459 -0.7000078601764654 -1.3679882055428232 -2.464630060512787 11.591196340826205 -2.309992365021696 -4.592381251376609 -5.777046982938975 10.822248924697355" Properties=species:S:1:pos:R:3 unique_starting_index=18 config_type=initial n_minim_iter=1 energy=-3586.041464069487 free_energy=-3586.041464069487 pbc="T T T"
Si       0.14377214      10.48475465      -1.29004772
Si      -1.53419766      -1.39238060       5.61778352
Si      -3.76398012      -3.87584966       9.49401247
Si       0.26345880      -3.12074641       8.55095561
Si      -5.52751513      -0.48615931       8.84363851
Si       4.31633229       2.26428248      -0.23385283
Si       2.43542288       0.99772735       0.03213489
Si      -2.03923637       1.78176752       8.23747589
Si      -1.69591284      -3.81501395       9.02363267
Si      -2.58203064       0.94032880       5.75618101
Si       1.19946359      -0.75392414       2.87299878
Si      -2.98436850       3.47303366       4.79703157
Si      -3.29867288      -2.92737957       6.39309578
Si      -0.87144836       7.54781323      -1.16825181
Si       1.17695531       1.19111977       3.73264789
Si       0.80475675       8.59034711      -1.97951130
Si      -0.91454247      -1.69441538       3.21765019
Si       2.58312403      -5.37978215       6.18231107
Si       0.27082129       2.76298398       2.63576201
Si      -3.25930649       2.68752614       6.75268083
Si      -1.22942871       4.13365751       3.25431031
Si      -1.34283468      -2.79814367       7.19640654
22
Lattice="5.535937724058825 -0.7002547975671427 -1.3682909893531103 -2.4646012402290727 11.590850628669457 -2.3097382991187985 -4.591783547367785 -5.776434383740997 10.822687554817495" Properties=species:S:1:pos:R:3 unique_starting_index=18 config_type=initial n_minim_iter=2 stress="-0.0018897672065631961 -0.00019182986640114418 -0.0007149857940437744 -0.00019182986640114418 -0.0006437445305219548 -3.6690545659018535e-05 -0.0007149857940437744 -3.6690545659018535e-05 -0.0008876602100972316" pbc="T T T"
Si       0.14331200      10.48438300      -1.28991440
Si      -1.53414822      -1.39218804       5.61801133
Si      -3.76356324      -3.87532549       9.49443361
Si       0.26316854      -3.12048460       8.55105642
Si      -5.52694261      -0.48573043       8.84412845
Si       4.31541801       2.26400588      -0.23404184
Si       2.43494864       0.99753067       0.03207365
Si      -2.03929051       1.78191653       8.23787452
Si      -1.69584487      -3.81460279       9.02394217
Si      -2.58184387       0.94053406       5.75654066
Si       1.19918886      -0.75387089       2.87302330
Si      -2.98412806       3.47319761       4.79733346
Si      -3.29812907      -2.92696721       6.39343593
Si      -0.87147884       7.54759992      -1.16813752
Si       1.17643934       1.19102824       3.73270936
Si       0.80429394       8.58999240      -1.97934432
Si      -0.91450906      -1.69430958       3.21767700
Si       2.58256957      -5.37959798       6.18221229
Si       0.27065067       2.76283972       2.63590972
Si      -3.25917700       2.68769491       6.75314478
Si      -1.22959136       4.13371247       3.25460342
Si      -1.34278676      -2.79791190       7.19665628
22
Lattice="5.535887092890787 -0.700603610657517 -1.3683797070788717 -2.465231743004789 11.591383953485133 -2.309848596955908 -4.59105455954137 -5.77603831373531 10.824494246473007" Properties=species:S:1:pos:R:3 unique_starting_index=18 config_type=initial n_minim_iter=3 stress="-0.00030631270270318984 -0.0002898984755993172 -0.00041078229908109935 -0.0002898984755993172 0.000921875385955125 -0.00023603403141594258 -0.00041078229908109935 -0.00023603403141594258 0.0014429724715973454" pbc="T T T"
Si       0.14269972      10.48485926      -1.28979356
Si      -1.53393779      -1.39202326       5.61906327
Si      -3.76302678      -3.87484706       9.49614232
Si       0.26366684      -3.12028581       8.55247169
Si      -5.52662983      -0.48511758       8.84564305
Si       4.31516592       2.26389374      -0.23389645
Si       2.43490803       0.99733601       0.03227652
Si      -2.03897051       1.78233805       8.23958899
Si      -1.69528638      -3.81426232       9.02561986
Si      -2.58158237       0.94095923       5.75776610
Si       1.19941256      -0.75379202       2.87362972
Si      -2.98390934       3.47383761       4.79823138
Si      -3.29754546      -2.92658923       6.39457339
Si      -0.87166560       7.54800664      -1.16817334
Si       1.17631188       1.19100706       3.73351518
Si       0.80373131       8.59030327      -1.97916863
Si      -0.91441758      -1.69433170       3.21806408
Si       2.58292078      -5.37973709       6.18317994
Si       0.27088544       2.76287664       2.63662169
Si      -3.25910258       2.68822408       6.75462329
Si      -1.22977366       4.13427770       3.25551821
Si      -1.34230159      -2.79783930       7.19801682
22
Lattice="5.536003634326488 -0.7004989379013493 -1.3678160753685105 -2.465317445950837 11.589885813873195 -2.3091540586221506 -4.590469488213065 -5.774856017089631 10.822631633349815" Properties=species:S:1:pos:R:3 unique_starting_index=18 config_type=initial n_minim_iter=4 stress="1.9670420827876804e-05 -5.074494752410904e-05 7.03165088380513e-05 -5.074494752410904e-05 -0.00022809553342228873 0.0005240784161123021 7.03165088380513e-05 0.0005240784161123021 0.00012588497161526393" pbc="T T T"
Si       0.14274958      10.48363998      -1.28908461
Si      -1.53362810      -1.39164518       5.61828670
Si      -3.76252738      -3.87387885       9.49464739
Si       0.26434182      -3.11943861       8.55125002
Si      -5.52620846      -0.48464008       8.84416989
Si       4.31531525       2.26370454      -0.23342482
Si       2.43505616       0.99719495       0.03254259
Si      -2.03832351       1.78251457       8.23866314
Si      -1.69470158      -3.81333433       9.02431923
Si      -2.58117474       0.94117225       5.75707397
Si       1.19974724      -0.75348689       2.87337642
Si      -2.98348293       3.47372363       4.79762779
Si      -3.29714685      -2.92589079       6.39348275
Si      -0.87152479       7.54710992      -1.16773214
Si       1.17658956       1.19100031       3.73325560
Si       0.80372752       8.58926382      -1.97829964
Si      -0.91429348      -1.69405372       3.21744730
Si       2.58337137      -5.37872900       6.18232513
Si       0.27131006       2.76262174       2.63653736
Si      -3.25869028       2.68821745       6.75383254
Si      -1.22954860       4.13408748       3.25538482
Si      -1.34173937      -2.79724904       7.19701897
22
Lattice="5.5360545362017275 -0.7001602516509072 -1.367395749323151 -2.4651332325657234 11.590208267997166 -2.3106417435803617 -4.590367297856407 -5.776545816317958 10.822185853349287" Properties=species:S:1:pos:R:3 unique_starting_index=18 config_type=initial n_minim_iter=5 stress="3.405872554341989e-05 0.00020758803966535293 -2.867386727053819e-05 0.00020758803966535293 -0.0003553958051206357 -0.0005133929443127869 -2.867386727053819e-05 -0.0005133929443127869 4.402945969944385e-05" pbc="T T T"
Si       0.14292548      10.48396251      -1.29046910
Si      -1.53359828      -1.39257600       5.61788619
Si      -3.76247024      -3.87527981       9.49416314
Si       0.26457114      -3.12064050       8.55063191
Si      -5.52611096      -0.48598450       8.84308866
Si       4.31541851       2.26386906      -0.23359485
Si       2.43515637       0.99714782       0.03251499
Si      -2.03805394       1.78125993       8.23753227
Si      -1.69463602      -3.81474114       9.02386899
Si      -2.58100824       0.94036907       5.75636791
Si       1.19992820      -0.75385287       2.87320763
Si      -2.98323128       3.47298477       4.79653704
Si      -3.29702425      -2.92679278       6.39315060
Si      -0.87123928       7.54732565      -1.16873691
Si       1.17677079       1.19040483       3.73278093
Si       0.80391426       8.58964214      -1.97923204
Si      -0.91431163      -1.69463698       3.21722922
Si       2.58345373      -5.37953377       6.18249368
Si       0.27155041       2.76225229       2.63584281
Si      -3.25853954       2.68716210       6.75268994
Si      -1.22940114       4.13374075       3.25451753
Si      -1.34148414      -2.79845472       7.19661516
22
Lattice="5.5360556782776715 -0.7007289249256947 -1.36677279846111 -2.4661312740527412 11.592784697724936 -2.3101271808004165 -4.589250023255945 -5.777207758065927 10.819720770200634" Properties=species:S:1:pos:R:3 unique_starting_index=18 config_type=initial n_minim_iter=6 stress="0.00015658506613141726 -0.0006443687912729971 -4.3070465457113607e-05 -0.0006443687912729971 0.0008650885012387974 2.7396811418449663e-05 -4.3070465457113607e-05 2.7396811418449663e-05 -0.000798842473452535" pbc="T T T"
Si       0.14191454      10.48639831      -1.29005526
Si      -1.53333193      -1.39288782       5.61681499
Si      -3.76173031      -3.87548930       9.49221237
Si       0.26543381      -3.12105306       8.54855503
Si      -5.52566795      -0.48534004       8.84089626
Si       4.31522820       2.26404781      -0.23320383
Si       2.43516747       0.99691036       0.03277766
Si      -2.03765509       1.78187407       8.23596893
Si      -1.69398465      -3.81541752       9.02198851
Si      -2.58067995       0.94101331       5.75534620
Si       1.20040009      -0.75408288       2.87265512
Si      -2.98313264       3.47388914       4.79556329
Si      -3.29623463      -2.92676425       6.39172329
Si      -0.87154733       7.54902008      -1.16845800
Si       1.17712061       1.19060111       3.73232487
Si       0.80315996       8.59137194      -1.97861571
Si      -0.91403288      -1.69505486       3.21638429
Si       2.58422557      -5.38062271       6.18131050
Si       0.27165081       2.76287422       2.63530570
Si      -3.25848610       2.68813002       6.75139628
Si      -1.22954749       4.13506051       3.25414006
Si      -1.34052443      -2.79908775       7.19498377
22
Lattice="5.5354729860187195 -0.6999394173618264 -1.3663898872842912 -2.464508821284708 11.591678515517623 -2.3100872265518424 -4.588763000809988 -5.777105094884593 10.81998818199243" Properties=species:S:1:pos:R:3 unique_starting_index=18 config_type=initial n_minim_iter=7 stress="-0.0004994745012547569 0.00024220422466338554 0.0003881807705138704 0.00024220422466338554 0.0003436998161706829 0.0001274680452719038 0.0003881807705138704 0.0001274680452719038 9.833855583460127e-05" pbc="T T T"
Si       0.14307538      10.48607360      -1.28983876
Si      -1.53319188      -1.39315239       5.61726102
Si      -3.76138600      -3.87525241       9.49276344
Si       0.26584740      -3.12037145       8.54864118
Si      -5.52478793      -0.48554629       8.84090274
Si       4.31521516       2.26455141      -0.23270685
Si       2.43523087       0.99679025       0.03321738
Si      -2.03655682       1.78172129       8.23666380
Si      -1.69380937      -3.81532110       9.02247036
Si      -2.57982256       0.94101558       5.75592236
Si       1.20078554      -0.75381242       2.87287802
Si      -2.98197879       3.47319246       4.79591503
Si      -3.29557785      -2.92644164       6.39195048
Si      -0.87011832       7.54847380      -1.16836883
Si       1.17785339       1.19089112       3.73295222
Si       0.80411431       8.59098659      -1.97844153
Si      -0.91390935      -1.69519500       3.21639827
Si       2.58377167      -5.37954547       6.18171939
Si       0.27239281       2.76286484       2.63555032
Si      -3.25750001       2.68780750       6.75200732
Si      -1.22858520       4.13512901       3.25476699
Si      -1.33978810      -2.79918454       7.19509422
22
Lattice="5.536366142844802 -0.7000087303864979 -1.3668957962056782 -2.4649756584886147 11.590255950441586 -2.3099066099140573 -4.5901961958673105 -5.776253309309767 10.82045948724785" Properties=species:S:1:pos:R:3 unique_starting_index=18 config_type=initial n_minim_iter=8 stress="0.0002618937135176259 -0.00020960080791388377 -0.0002693839810132888 -0.00020960080791388377 -0.00025881916021852955 7.339359893280727e-05 -0.0002693839810132888 7.339359893280727e-05 0.00011236881323595008" pbc="T T T"
Si       0.14278029      10.48484124      -1.28997821
Si      -1.53405033      -1.39311732       5.61747409
Si      -3.76278685      -3.87462180       9.49329456
Si       0.26517359      -3.11990862       8.54842029
Si      -5.52652495      -0.48527172       8.84129115
Si       4.31572783       2.26413221      -0.23314167
Si       2.43556871       0.99633446       0.03309320
Si      -2.03766204       1.78145760       8.23689984
Si      -1.69477129      -3.81492348       9.02262462
Si      -2.58065331       0.94099742       5.75633705
Si       1.20088692      -0.75377569       2.87272515
Si      -2.98291927       3.47265637       4.79624217
Si      -3.29634377      -2.92575886       6.39235747
Si      -0.87018024       7.54751983      -1.16831028
Si       1.17772516       1.19075552       3.73288041
Si       0.80409266       8.58999230      -1.97860608
Si      -0.91424984      -1.69508829       3.21645775
Si       2.58367507      -5.37883723       6.18144867
Si       0.27211562       2.76249491       2.63547234
Si      -3.25878867       2.68758345       6.75247501
Si      -1.22913602       4.13478327       3.25503022
Si      -1.34033326      -2.79901683       7.19511377
22
Lattice="5.53619378911644 -0.6990749942327966 -1.365930449941409 -2.4633789876705046 11.590498378087222 -2.3101603837659055 -4.589993220381582 -5.777736919531785 10.817767861019641" Properties=species:S:1:pos:R:3 unique_starting_index=18 config_type=initial n_minim_iter=9 stress="7.483375056867836e-05 0.00032733883239205013 -0.00021561354204428237 0.00032733883239205013 0.0003142168845183255 3.94727078180961e-05 -0.00021561354204428237 3.94727078180961e-05 -0.00033675050188887483" pbc="T T T"
Si       0.14390334      10.48581394      -1.29054684
Si      -1.53447831      -1.39414107       5.61599330
Si      -3.76250588      -3.87586739       9.49141868
Si       0.26526968      -3.11996075       8.54624645
Si      -5.52666908      -0.48632121       8.83803587
Si       4.31606619       2.26495440      -0.23306645
Si       2.43599813       0.99580661       0.03355395
Si      -2.03671266       1.78065441       8.23485748
Si      -1.69435421      -3.81613188       9.02054719
Si      -2.57941223       0.94033691       5.75536786
Si       1.20187334      -0.75377656       2.87203612
Si      -2.98160367       3.47170380       4.79489965
Si      -3.29531620      -2.92568474       6.39104525
Si      -0.86855787       7.54764318      -1.16833604
Si       1.17831004       1.19098770       3.73215863
Si       0.80511267       8.59135241      -1.97887056
Si      -0.91390716      -1.69592972       3.21572322
Si       2.58331692      -5.37851367       6.18028869
Si       0.27256687       2.76274438       2.63466203
Si      -3.25828187       2.68725873       6.75121844
Si      -1.22765954       4.13508089       3.25452410
Si      -1.33938327      -2.80085336       7.19312744
22
Lattice="5.535974350159309 -0.6993762224626295 -1.3653564287816535 -2.464402405054071 11.589649100474713 -2.310741712052266 -4.588305567552042 -5.777100980565906 10.817723226009432" Properties=species:S:1:pos:R:3 unique_starting_index=18 config_type=initial n_minim_iter=10 stress="-0.00016426413561863344 -0.00044324396350565174 0.000505487390260524 -0.00044324396350565174 -0.00029374203365175726 -0.00026226996892282005 0.000505487390260524 -0.00026226996892282005 5.6088187816356125e-06" pbc="T T T"
Si       0.14285533      10.48502108      -1.29092537
Si      -1.53400851      -1.39416963       5.61597501
Si      -3.76102758      -3.87549204       9.49152950
Si       0.26631541      -3.11973771       8.54659468
Si      -5.52595490      -0.48605072       8.83746851
Si       4.31576780       2.26443853      -0.23279480
Si       2.43596894       0.99525407       0.03380193
Si      -2.03597026       1.78038609       8.23488881
Si      -1.69311664      -3.81602295       9.02080555
Si      -2.57871223       0.94036089       5.75545494
Si       1.20246820      -0.75383918       2.87221268
Si      -2.98116162       3.47137050       4.79472605
Si      -3.29418700      -2.92496216       6.39101667
Si      -0.86904308       7.54697498      -1.16857336
Si       1.17861979       1.19071647       3.73239393
Si       0.80422954       8.59078757      -1.97909187
Si      -0.91334803      -1.69594060       3.21573755
Si       2.58425184      -5.37818441       6.18079574
Si       0.27253468       2.76245904       2.63467930
Si      -3.25786892       2.68719642       6.75116229
Si      -1.22740600       4.13485566       3.25458106
Si      -1.33807329      -2.80094863       7.19309286
22
Lattice="5.536394303363721 -0.6987345759032607 -1.3659835249140027 -2.462639424749574 11.588538541270461 -2.308776983215423 -4.590451134082134 -5.77591020618195 10.81751035426841" Properties=species:S:1:pos:R:3 unique_starting_index=18 config_type=initial n_minim_iter=11 stress="0.00010044063719028058 0.00018859966578636814 -0.00017433246852604007 0.00018859966578636814 8.714876587224179e-05 -3.26823626409743e-05 -0.00017433246852604007 -3.26823626409743e-05 -0.00022255154484242853" pbc="T T T"
Si       0.14403691      10.48510877      -1.28971474
Si      -1.53567156      -1.39396258       5.61587543
Si      -3.76235111      -3.87466934       9.49195990
Si       0.26490766      -3.11787391       8.54652647
Si      -5.52849887      -0.48542824       8.83730408
Si       4.31644120       2.26495709      -0.23325992
Si       2.43660085       0.99474309       0.03366878
Si      -2.03681215       1.78108942       8.23564249
Si      -1.69476399      -3.81534081       9.02087786
Si      -2.57922055       0.94114705       5.75658971
Si       1.20299619      -0.75312836       2.87189897
Si      -2.98077634       3.47136310       4.79587581
Si      -3.29510683      -2.92324985       6.39118289
Si      -0.86743800       7.54620343      -1.16715777
Si       1.17858232       1.19126093       3.73268569
Si       0.80577264       8.59107063      -1.97791896
Si      -0.91381584      -1.69606711       3.21548179
Si       2.58293338      -5.37616896       6.17972013
Si       0.27237908       2.76284439       2.63507243
Si      -3.25885177       2.68789831       6.75234188
Si      -1.22661331       4.13547917       3.25598092
Si      -1.33830752      -2.80084407       7.19231437
22
Lattice="5.536490233342761 -0.6984870295488255 -1.3661502309249975 -2.461732464892169 11.584804184740078 -2.3054014044736846 -4.5903794313448145 -5.771135209903798 10.818043428573382" Properties=species:S:1:pos:R:3 unique_starting_index=18 config_type=initial n_minim_iter=12 stress="9.136652557363436e-05 0.00017026590968967885 1.748129860770847e-05 0.00017026590968967885 -3.930013909180417e-05 -7.655456034427482e-06 1.748129860770847e-05 -7.655456034427482e-06 1.8658721578529096e-05" pbc="T T T"
Si       0.14386100      10.48384689      -1.28697711
Si      -1.53731109      -1.39266453       5.61621041
Si      -3.76159597      -3.87116611       9.49397878
Si       0.26536289      -3.11350784       8.54889807
Si      -5.53085892      -0.48231530       8.83732568
Si       4.31698797       2.26476847      -0.23297001
Si       2.43746545       0.99282366       0.03428340
Si      -2.03669914       1.78308120       8.23864895
Si      -1.69443021      -3.81220295       9.02113130
Si      -2.57895825       0.94373237       5.75969675
Si       1.20498383      -0.75156568       2.87222118
Si      -2.97918084       3.47143708       4.79876825
Si      -3.29445909      -2.91804752       6.39193583
Si      -0.86581537       7.54353507      -1.16440004
Si       1.17940428       1.19227862       3.73448060
Si       0.80674564       8.58983483      -1.97507292
Si      -0.91352726      -1.69580373       3.21527543
Si       2.58284254      -5.37126598       6.17960395
Si       0.27218530       2.76301962       2.63668054
Si      -3.25929359       2.68967676       6.75503353
Si      -1.22477883       4.13660826       3.25955988
Si      -1.33688397      -2.80047617       7.19210341
22
Lattice="5.536633392718812 -0.6984847628359994 -1.3659724101251227 -2.4619060375029997 11.583226697676912 -2.304757732452919 -4.589939280889275 -5.7695726453283145 10.81810874369332" Properties=species:S:1:pos:R:3 unique_starting_index=18 config_type=initial n_minim_iter=13 stress="0.00030547189301475316 0.00013299683891663567 0.00014323948402177614 0.00013299683891663567 -0.00010510405004510199 -0.0001284900617355434 0.00014323948402177614 -0.0001284900617355434 -6.0104358807367247e-05" pbc="T T T"
Si       0.14331641      10.48322626      -1.28651778
Si      -1.53791957      -1.39256070       5.61619525
Si      -3.76120371      -3.87000735       9.49479546
Si       0.26634863      -3.11244138       8.54996504
Si      -5.53185637      -0.48124071       8.83672702
Si       4.31718777       2.26442721      -0.23278639
Si       2.43799845       0.99202359       0.03414475
Si      -2.03678562       1.78349333       8.23938161
Si      -1.69375926      -3.81163027       9.02145048
Si      -2.57852576       0.94433225       5.76074591
Si       1.20605547      -0.75102119       2.87237498
Si      -2.97852699       3.47117154       4.79935083
Si      -3.29398109      -2.91586113       6.39211500
Si      -0.86538625       7.54236499      -1.16373414
Si       1.17962863       1.19253012       3.73491683
Si       0.80676854       8.58918804      -1.97430337
Si      -0.91320273      -1.69586278       3.21519101
Si       2.58323647      -5.36952824       6.17985966
Si       0.27202656       2.76269388       2.63696511
Si      -3.25954798       2.69000798       6.75572986
Si      -1.22406280       4.13693702       3.26071884
Si      -1.33633086      -2.80093050       7.19131052
22
Lattice="5.535481470888417 -0.6984941363971375 -1.3666124090901601 -2.460956854583523 11.582392649182951 -2.3035658298533686 -4.589682785405691 -5.768080457105354 10.819539781354722" Properties=species:S:1:pos:R:3 unique_starting_index=18 config_type=initial n_minim_iter=14 stress="0.00017333037582124473 0.00011944346974237416 7.711244246848499e-05 0.00011944346974237416 -7.821950733469521e-05 -7.10527871275575e-05 7.711244246848499e-05 -7.10527871275575e-05 0.00010681291991472764" pbc="T T T"
Si       0.14321515      10.48315265      -1.28571230
Si      -1.53869118      -1.39236678       5.61686721
Si      -3.76096288      -3.86870714       9.49683968
Si       0.26625957      -3.11139153       8.55140976
Si      -5.53248717      -0.48004100       8.83765435
Si       4.31629976       2.26424298      -0.23267820
Si       2.43792342       0.99151843       0.03369534
Si      -2.03741275       1.78449082       8.24113959
Si      -1.69361255      -3.81075700       9.02247523
Si      -2.57793270       0.94491582       5.76253903
Si       1.20638228      -0.75032874       2.87272577
Si      -2.97761439       3.47143461       4.80067961
Si      -3.29419701      -2.91377805       6.39293444
Si      -0.86451011       7.54176214      -1.16279078
Si       1.17910910       1.19307161       3.73567975
Si       0.80673956       8.58902898      -1.97344213
Si      -0.91291523      -1.69576531       3.21564382
Si       2.58210196      -5.36787138       6.18028786
Si       0.27146840       2.76265502       2.63740204
Si      -3.25969396       2.69078994       6.75776904
Si      -1.22338803       4.13771663       3.26248690
Si      -1.33571352      -2.80143078       7.19177408
22
Lattice="5.534492878591995 -0.6986070695153163 -1.3670813513102689 -2.4603335798746295 11.582890143280684 -2.302913789491243 -4.589432933708165 -5.767761530626386 10.820302020318833" Properties=species:S:1:pos:R:3 unique_starting_index=18 config_type=initial n_minim_iter=15 stress="0.000132547811910958 5.97546930741805e-05 7.326146380661809e-05 5.97546930741805e-05 -4.569567831822967e-05 -1.5181894868862255e-05 7.326146380661809e-05 -1.5181894868862255e-05 0.00012699792189104506" pbc="T T T"
Si       0.14308078      10.48385174      -1.28543777
Si      -1.53930680      -1.39305416       5.61745145
Si      -3.76024739      -3.86844081       9.49817430
Si       0.26619400      -3.11111394       8.55192462
Si      -5.53323361      -0.47931325       8.83777874
Si       4.31517312       2.26413410      -0.23247541
Si       2.43791891       0.99118531       0.03318150
Si      -2.03780699       1.78499598       8.24198355
Si      -1.69320715      -3.81041402       9.02287110
Si      -2.57743595       0.94534523       5.76374106
Si       1.20670767      -0.74979072       2.87298771
Si      -2.97691406       3.47177302       4.80141626
Si      -3.29443991      -2.91244849       6.39350238
Si      -0.86408025       7.54193438      -1.16215789
Si       1.17876838       1.19324796       3.73628141
Si       0.80604951       8.59011219      -1.97287095
Si      -0.91242790      -1.69582424       3.21614228
Si       2.58082137      -5.36711032       6.18024981
Si       0.27089576       2.76281849       2.63727821
Si      -3.26006316       2.69136835       6.75826129
Si      -1.22284251       4.13875939       3.26365027
Si      -1.33545469      -2.80275063       7.19129267
22
Lattice="5.533699607883798 -0.6986107376567461 -1.3674880808721128 -2.4597035599732866 11.584851058525873 -2.303452157673651 -4.589511682201241 -5.769306392849434 10.821312945791368" Properties=species:S:1:pos:R:3 unique_starting_index=18 config_type=initial n_minim_iter=16 stress="7.779427766100055e-05 4.382139531968758e-06 2.5186672508126436e-05 4.382139531968758e-06 4.811179464371829e-05 -2.6879894620438037e-05 2.5186672508126436e-05 -2.6879894620438037e-05 9.7145067460557e-05" pbc="T T T"
Si       0.14297884      10.48608600      -1.28610601
Si      -1.54005374      -1.39491122       5.61804334
Si      -3.75925733      -3.86988069       9.49969056
Si       0.26603911      -3.11190350       8.55210602
Si      -5.53474885      -0.47985593       8.83746359
Si       4.31367600       2.26431832      -0.23250317
Si       2.43817191       0.99103447       0.03234339
Si      -2.03878433       1.78497659       8.24235085
Si      -1.69297769      -3.81140207       9.02312764
Si      -2.57684284       0.94520819       5.76483874
Si       1.20715928      -0.74955596       2.87331130
Si      -2.97645921       3.47175159       4.80154870
Si      -3.29514585      -2.91213633       6.39436772
Si      -0.86404391       7.54280864      -1.16209182
Si       1.17825192       1.19366956       3.73642780
Si       0.80615850       8.59214726      -1.97344433
Si      -0.91205224      -1.69641554       3.21666420
Si       2.57920558      -5.36713974       6.18041828
Si       0.27082080       2.76263618       2.63718491
Si      -3.26070001       2.69128940       6.75809541
Si      -1.22217077       4.13998829       3.26430098
Si      -1.33516204      -2.80566725       7.19050434
22
Lattice="5.533197890865943 -0.6990340209944367 -1.3674946798492946 -2.4602439427772373 11.586553374103355 -2.3038389125097654 -4.588607823543686 -5.7699921402775916 10.821902540824311" Properties=species:S:1:pos:R:3 unique_starting_index=18 config_type=initial n_minim_iter=17 stress="8.234742757312577e-05 -0.000149963161829981 -1.9601078926236012e-06 -0.000149963161829981 -1.0885224539949132e-05 6.479740425720419e-05 -1.9601078926236012e-06 6.479740425720419e-05 0.00013821495749438326" pbc="T T T"
Si       0.14215423      10.48801848      -1.28621087
Si      -1.54020560      -1.39631377       5.61826034
Si      -3.75799927      -3.87062220       9.50102248
Si       0.26687320      -3.11226598       8.55210966
Si      -5.53611790      -0.48019106       8.83688757
Si       4.31228772       2.26433387      -0.23189125
Si       2.43865045       0.99104883       0.03129559
Si      -2.03916608       1.78531057       8.24249283
Si      -1.69174463      -3.81204671       9.02303180
Si      -2.57647652       0.94557211       5.76548242
Si       1.20786349      -0.74922978       2.87386641
Si      -2.97606602       3.47213876       4.80140625
Si      -3.29504455      -2.91162547       6.39533619
Si      -0.86478993       7.54356122      -1.16188662
Si       1.17848538       1.19340928       3.73692224
Si       0.80540978       8.59362922      -1.97368608
Si      -0.91153288      -1.69669523       3.21698894
Si       2.57842742      -5.36666252       6.18056823
Si       0.27074634       2.76291847       2.63754964
Si      -3.26100249       2.69163051       6.75852843
Si      -1.22127650       4.14094565       3.26478075
Si      -1.33433827      -2.80823223       7.18962765
22
Lattice="5.532097198853333 -0.6987283650134031 -1.3667978946254247 -2.459152104332535 11.590647206686047 -2.3049109479420324 -4.587289654677314 -5.773357021894628 10.821042985506127" Properties=species:S:1:pos:R:3 unique_starting_index=18 config_type=initial n_minim_iter=18 stress="2.6219130377415628e-05 -9.364735136020499e-05 -1.993295021747173e-05 -9.364735136020499e-05 4.2223101049704823e-05 0.00013331865364133832 -1.993295021747173e-05 0.00013331865364133832 0.00013985167953867354" pbc="T T T"
Si       0.14296913      10.49207910      -1.28681638
Si      -1.53985878      -1.39855040       5.61748796
Si      -3.75631180      -3.87332498       9.50098167
Si       0.26791564      -3.11391567       8.55123773
Si      -5.53634175      -0.48212705       8.83484856
Si       4.31129325       2.26573082      -0.23087582
Si       2.43906808       0.99160755       0.03058481
Si      -2.03802462       1.78503017       8.24113130
Si      -1.69061403      -3.81461180       9.02163071
Si      -2.57532440       0.94536381       5.76493778
Si       1.20851176      -0.74946069       2.87410464
Si      -2.97468597       3.47243116       4.80042459
Si      -3.29471701      -2.91268858       6.39532896
Si      -0.86434885       7.54615704      -1.16224874
Si       1.17883509       1.19397088       3.73666502
Si       0.80514624       8.59753831      -1.97365859
Si      -0.91118647      -1.69767704       3.21669570
Si       2.57721009      -5.36745614       6.18067775
Si       0.27145666       2.76346463       2.63778128
Si      -3.25990268       2.69191647       6.75754814
Si      -1.21928160       4.14223874       3.26426340
Si      -1.33304703      -2.81207144       7.18757877
22
Lattice="5.530720769415958 -0.6985709050036616 -1.3656882751120278 -2.458439278598744 11.595789568517588 -2.306597527037856 -4.5852741424583 -5.777806776242791 10.81874355969187" Properties=species:S:1:pos:R:3 unique_starting_index=18 config_type=initial n_minim_iter=19 stress="-0.00011876119466727721 -6.626336619214376e-05 2.2092086948038827e-05 -6.626336619214376e-05 0.00017884212005087665 7.946557766270096e-05 2.2092086948038827e-05 7.946557766270096e-05 -2.8132155082023487e-05" pbc="T T T"
Si       0.14342098      10.49698228      -1.28797945
Si      -1.53911898      -1.40121181       5.61588517
Si      -3.75446002      -3.87684168       9.49948663
Si       0.26883388      -3.11655776       8.54944756
Si      -5.53581188      -0.48469463       8.83149463
Si       4.31033146       2.26724260      -0.23021511
Si       2.43916955       0.99196273       0.03034973
Si      -2.03679437       1.78444087       8.23831209
Si      -1.68846831      -3.81780524       9.01928108
Si      -2.57409138       0.94496194       5.76320463
Si       1.20900598      -0.75002008       2.87398904
Si      -2.97326750       3.47265284       4.79852349
Si      -3.29396723      -2.91436787       6.39425672
Si      -0.86408092       7.54950564      -1.16318668
Si       1.17912082       1.19404077       3.73557501
Si       0.80460179       8.60162265      -1.97418436
Si      -0.91068790      -1.69889927       3.21601136
Si       2.57605156      -5.36975128       6.18009490
Si       0.27211072       2.76393668       2.63709696
Si      -3.25832311       2.69201231       6.75506918
Si      -1.21759770       4.14362233       3.26277166
Si      -1.33125016      -2.81608973       7.18444498
22
Lattice="5.530496405230033 -0.6986822545028255 -1.3652438208622109 -2.4587173178858275 11.598363730513876 -2.3077503197151112 -4.584765931918058 -5.7802348392144784 10.817303423368935" Properties=species:S:1:pos:R:3 unique_starting_index=18 config_type=initial n_minim_iter=20 stress="-2.6517908646687114e-06 -3.519039215227394e-05 3.054347020026816e-05 -3.519039215227394e-05 0.00011602433371977906 6.373620443296706e-05 3.054347020026816e-05 6.373620443296706e-05 -8.088628086985972e-05" pbc="T T T"
Si       0.14351414      10.49934072      -1.28883137
Si      -1.53907369      -1.40327673       5.61452514
Si      -3.75363290      -3.87880870       9.49862741
Si       0.26903970      -3.11806304       8.54805729
Si      -5.53691500      -0.48639372       8.82943172
Si       4.31044526       2.26811345      -0.22999367
Si       2.43967274       0.99187773       0.02998406
Si      -2.03693056       1.78399267       8.23633580
Si      -1.68803792      -3.81979885       9.01741783
Si      -2.57401043       0.94479772       5.76203162
Si       1.20934565      -0.75019880       2.87405663
Si      -2.97311198       3.47251322       4.79723924
Si      -3.29414134      -2.91489161       6.39382384
Si      -0.86448260       7.55111809      -1.16385055
Si       1.17904528       1.19353722       3.73437023
Si       0.80366759       8.60339712      -1.97494183
Si      -0.91034416      -1.69933531       3.21582381
Si       2.57506098      -5.37082280       6.17951764
Si       0.27251102       2.76367871       2.63628241
Si      -3.25800744       2.69201909       6.75364816
Si      -1.21705419       4.14451871       3.26180101
Si      -1.33039146      -2.81951170       7.18171869
22
Lattice="5.530561859251948 -0.6988454353548382 -1.36540023348582 -2.459070786117981 11.599968527881911 -2.3087656775566 -4.585233062651298 -5.781987007604166 10.817077345062918" Properties=species:S:1:pos:R:3 unique_starting_index=18 config_type=initial n_minim_iter=21 stress="0.00011411351617070509 7.689700494310737e-05 -4.91455668301087e-06 7.689700494310737e-05 7.725645074018485e-05 -8.511574600819025e-06 -4.91455668301087e-06 -8.511574600819025e-06 -8.085433065513224e-05" pbc="T T T"
Si       0.14390575      10.50056746      -1.28968294
Si      -1.53953524      -1.40540518       5.61344507
Si      -3.75375714      -3.88000943       9.49894551
Si       0.26864721      -3.11921458       8.54725305
Si      -5.53904813      -0.48792704       8.82877574
Si       4.31079669       2.26895044      -0.23056822
Si       2.44051710       0.99170838       0.02920075
Si      -2.03785675       1.78358117       8.23559028
Si      -1.68833688      -3.82123392       9.01679960
Si      -2.57458714       0.94480147       5.76153018
Si       1.20942995      -0.75068450       2.87423340
Si      -2.97365728       3.47204614       4.79651417
Si      -3.29509309      -2.91484469       6.39425636
Si      -0.86527536       7.55195186      -1.16437590
Si       1.17889538       1.19321480       3.73358110
Si       0.80311036       8.60462863      -1.97551774
Si      -0.91048166      -1.69949727       3.21576037
Si       2.57315100      -5.37148307       6.17889283
Si       0.27258909       2.76341601       2.63542229
Si      -3.25845112       2.69210807       6.75304362
Si      -1.21680447       4.14523442       3.26125728
Si      -1.33000578      -2.82359666       7.17963824
