22
Lattice="6.052201668910102 -0.1468928670434247 -0.7449747522962552 -0.8912130953395311 9.670730023010249 -2.8287686935604306 -3.1171433681344776 -7.046971205743884 13.636190427476167" Properties=species:S:1:pos:R:3 unique_starting_index=51 config_type=initial n_minim_iter=1 energy=-3591.0576711718313 free_energy=-3591.0576711718313 pbc="T T T"
Si       2.95750629       7.88508265       0.47046497
Si      -2.07737166      -0.19216358       7.04197460
Si       0.54765802       8.24925132      -3.40810570
Si      -1.36862120       4.61842600       1.85114768
Si      -0.12764378      -0.91988997       6.51533159
Si       4.73425376      -0.10016538       4.29848897
Si      -0.12841136       1.18029322       1.60900848
Si       0.27301143       1.97194479      -0.31490528
Si       1.04865215      -2.59514898       6.02995202
Si       3.01501850      -0.89208449       8.79423740
Si      -1.85157664       1.52923333       8.26426028
Si       4.76155758       1.23173777       2.62340010
Si      -0.19526987       3.03886841       2.64018794
Si       1.62282640      -4.42706678      13.74799582
Si       2.31743848      -2.44103656      10.66347927
Si       4.21855840       6.28446976       2.10434180
Si       1.50821799       0.43385186       0.45961208
Si       2.97780028       2.84747118       8.48338472
Si       1.99181034      -0.84621755       6.89211768
Si      -0.14081227      -1.65971281       4.53006804
Si       3.42459576       1.19516564       0.97418280
Si       2.61508860      -1.22495389       1.17866710
22
Lattice="6.051626022812757 -0.14408825822247767 -0.745484752839712 -0.8863789177519827 9.662873882590228 -2.8269792141043 -3.1220231584069325 -7.042782569575583 13.62917721679753" Properties=species:S:1:pos:R:3 unique_starting_index=51 config_type=initial n_minim_iter=2 stress="-0.004080804702773465 -0.001690599761427723 -0.00015074114943888534 -0.001690599761427723 -0.0012171786770551146 -0.0010166894115345132 -0.00015074114943888534 -0.0010166894115345132 -0.002918720838608313" pbc="T T T"
Si       2.96071533       7.88040191       0.46989403
Si      -2.07823302      -0.19277498       7.03850457
Si       0.55175114       8.24309121      -3.40615508
Si      -1.36662901       4.61424569       1.85049898
Si      -0.12914019      -0.91915929       6.51179146
Si       4.73309028      -0.09801144       4.29539837
Si      -0.12813517       1.17942392       1.60824658
Si       0.27391167       1.97054297      -0.31484877
Si       1.04640594      -2.59257041       6.02644918
Si       3.01297086      -0.88993012       8.78892728
Si      -1.85197103       1.52728962       8.26000798
Si       4.76117170       1.23295484       2.62123151
Si      -0.19438225       3.03654524       2.63872052
Si       1.61859556      -4.42279733      13.74032903
Si       2.31451809      -2.43801257      10.65733006
Si       4.22071313       6.28152065       2.10263480
Si       1.50813839       0.43409091       0.45921480
Si       2.97748186       2.84675906       8.47830670
Si       1.99024965      -0.84463462       6.88810669
Si      -0.14224359      -1.65842280       4.52764085
Si       3.42474890       1.19583827       0.97313002
Si       2.61410260      -1.22281903       1.17764568
22
Lattice="6.056552056949524 -0.14010836829478587 -0.7461471560255426 -0.8803367992101814 9.659042238388817 -2.8254236166222553 -3.1303498835697385 -7.03987881307478 13.631341611356381" Properties=species:S:1:pos:R:3 unique_starting_index=51 config_type=initial n_minim_iter=3 stress="0.00414469143351081 0.0024417152641711876 -0.0005596600576110133 0.0024417152641711876 0.00013992537535405586 -4.9158807250741e-05 -0.0005596600576110133 -4.9158807250741e-05 0.002493621712468863" pbc="T T T"
Si       2.96861198       7.88054948       0.47170071
Si      -2.08041243      -0.19236877       7.04050983
Si       0.55789983       8.24039649      -3.40494467
Si      -1.36457585       4.61234184       1.85230988
Si      -0.13063624      -0.91747853       6.51342825
Si       4.73658725      -0.09397616       4.29602538
Si      -0.12748380       1.17938710       1.60918299
Si       0.27549101       1.97017091      -0.31485362
Si       1.04489955      -2.58967918       6.02726439
Si       3.01415850      -0.88563559       8.79056256
Si      -1.85308204       1.52749290       8.26249761
Si       4.76559400       1.23649902       2.62187562
Si      -0.19280850       3.03641287       2.63997489
Si       1.61571586      -4.41725419      13.74290422
Si       2.31404221      -2.43338356      10.65942389
Si       4.22856115       6.28322339       2.10438078
Si       1.50952623       0.43487666       0.45960565
Si       2.98121571       2.85010335       8.48069564
Si       1.99101330      -0.84158677       6.88967424
Si      -0.14382622      -1.65703911       4.52835963
Si       3.42854645       1.19819203       0.97325773
Si       2.61544995      -1.22051185       1.17764645
22
Lattice="6.056061829281452 -0.1403091815269608 -0.7436629547983118 -0.88062263917117 9.654753493793766 -2.815446944562204 -3.12543719070535 -7.025738864384957 13.619042233953365" Properties=species:S:1:pos:R:3 unique_starting_index=51 config_type=initial n_minim_iter=4 stress="-0.00200986749837501 -0.0007259002075470186 0.002401934959296786 -0.0007259002075470186 -0.0013035191423429488 0.005414207139143983 0.002401934959296786 0.005414207139143983 0.0037275434357705107" pbc="T T T"
Si       2.97073425       7.88095834       0.48107739
Si      -2.07696200      -0.18486710       7.03777187
Si       0.55635831       8.23523331      -3.39419744
Si      -1.36251617       4.61233531       1.85648327
Si      -0.12989106      -0.91095277       6.51133607
Si       4.73777738      -0.09055926       4.29564951
Si      -0.12622795       1.18047348       1.61155713
Si       0.27522041       1.97000693      -0.31498839
Si       1.04559152      -2.58282148       6.02275062
Si       3.01714922      -0.87674666       8.78663553
Si      -1.84992177       1.53497695       8.25997069
Si       4.76595206       1.23986276       2.62363182
Si      -0.19245446       3.03918019       2.64134101
Si       1.61891987      -4.40259798      13.73593424
Si       2.31828809      -2.42275754      10.65490889
Si       4.23195050       6.28525538       2.11210082
Si       1.50957272       0.43452683       0.46234089
Si       2.98449250       2.85906063       8.48038345
Si       1.99521267      -0.83530082       6.88796376
Si      -0.14265086      -1.65244737       4.52463844
Si       3.43012722       1.20007922       0.97411510
Si       2.61676021      -1.21980949       1.17829822
22
Lattice="6.0594711922391875 -0.13959645625980568 -0.7444383274534666 -0.87989818234758 9.661768528070443 -2.8190623077802606 -3.1308140272032783 -7.0384266479023765 13.613062437767375" Properties=species:S:1:pos:R:3 unique_starting_index=51 config_type=initial n_minim_iter=5 stress="-0.00015686189767598156 -0.001568474448557801 -0.00020839887643185983 -0.001568474448557801 0.0015685536075369891 3.005826903574532e-05 -0.00020839887643185983 3.005826903574532e-05 0.0015604001873019376" pbc="T T T"
Si       2.97353813       7.88575407       0.47538267
Si      -2.07943114      -0.18898719       7.03295379
Si       0.55732349       8.24140147      -3.39575643
Si      -1.36287917       4.61303585       1.85294942
Si      -0.13272452      -0.91575151       6.50702217
Si       4.73889937      -0.09396118       4.29040090
Si      -0.12610889       1.17986740       1.61063628
Si       0.27520521       1.97161982      -0.31760826
Si       1.04367782      -2.58759752       6.01889062
Si       3.01635009      -0.88266741       8.77810298
Si      -1.85311809       1.53026842       8.25215735
Si       4.76725665       1.23955560       2.61921999
Si      -0.19366398       3.03958094       2.63672491
Si       1.61529741      -4.41296283      13.72736659
Si       2.31700489      -2.43104246      10.64727022
Si       4.23552571       6.28779390       2.10565414
Si       1.51036521       0.43405210       0.46246757
Si       2.98404375       2.85599727       8.46980651
Si       1.99561853      -0.84067156       6.88259073
Si      -0.14420646      -1.65620216       4.52169345
Si       3.43201145       1.20036230       0.97088835
Si       2.61860130      -1.22182760       1.17833044
22
Lattice="6.061105028455076 -0.13620385331952345 -0.7386501809215963 -0.8767766138873241 9.663552200716616 -2.8141616989096914 -3.1251572805524575 -7.039406024974626 13.592191721950034" Properties=species:S:1:pos:R:3 unique_starting_index=51 config_type=initial n_minim_iter=6 stress="0.00010934547480590085 0.00014851476667386787 0.004103922130074879 0.00014851476667386787 0.003343546743198197 -0.0009140303138184567 0.004103922130074879 -0.0009140303138184567 0.0006628633631835058" pbc="T T T"
Si       2.98083496       7.89106897       0.47953577
Si      -2.07469169      -0.18856450       7.02279374
Si       0.55871261       8.24237159      -3.38805851
Si      -1.35837639       4.61368912       1.85183073
Si      -0.12920926      -0.91517962       6.49975757
Si       4.74322468      -0.09127483       4.28769597
Si      -0.12343666       1.18134957       1.60916569
Si       0.27498790       1.97260989      -0.31818006
Si       1.04722683      -2.58509049       6.01184408
Si       3.02387463      -0.87884313       8.76767441
Si      -1.84690677       1.53198806       8.24132063
Si       4.77095532       1.24488286       2.62035650
Si      -0.19061072       3.04114884       2.63421463
Si       1.62448537      -4.40955982      13.71003016
Si       2.32552583      -2.42860685      10.63574786
Si       4.24461698       6.29248532       2.10819518
Si       1.51249078       0.43505362       0.46461439
Si       2.99384532       2.86166064       8.46123031
Si       2.00313094      -0.83968698       6.87544338
Si      -0.14162880      -1.65577665       4.51478877
Si       3.43274438       1.20166221       0.97085294
Si       2.62144520      -1.22187022       1.18039738
22
Lattice="6.064455494369671 -0.13745110214941883 -0.7435567590637132 -0.8760056829223012 9.659958525793176 -2.8056219114480485 -3.1373266527531984 -7.028730068901667 13.583254336340651" Properties=species:S:1:pos:R:3 unique_starting_index=51 config_type=initial n_minim_iter=7 stress="-0.0023079909254347486 -0.0009923837519775279 -0.0007163586910769735 -0.0009923837519775279 0.0031893801604398254 0.001167927305080256 -0.0007163586910769735 0.001167927305080256 0.0013597097231217961" pbc="T T T"
Si       2.98153331       7.89036347       0.48237114
Si      -2.08186188      -0.18352792       7.02112522
Si       0.55986782       8.23748682      -3.37995902
Si      -1.36051978       4.61390054       1.85613766
Si      -0.13542407      -0.91125045       6.49697352
Si       4.74077415      -0.08987098       4.28028687
Si      -0.12457226       1.18322054       1.60929633
Si       0.27408788       1.97209952      -0.31832000
Si       1.04302829      -2.57941672       6.00645388
Si       3.01766479      -0.87284032       8.75840245
Si      -1.85555857       1.53790710       8.23998101
Si       4.76934520       1.24727756       2.61569469
Si      -0.19399341       3.04242424       2.63542829
Si       1.61397320      -4.39968389      13.69809189
Si       2.31814241      -2.42200147      10.62690499
Si       4.24555289       6.29194537       2.10793285
Si       1.51359759       0.43489763       0.46411822
Si       2.98772076       2.86725325       8.45546346
Si       1.99939265      -0.83679712       6.86937796
Si      -0.14524989      -1.65255417       4.51055496
Si       3.43171740       1.20056134       0.96665130
Si       2.62312996      -1.22250866       1.17813402
22
Lattice="6.071127694920181 -0.14015432685533336 -0.7428239038485548 -0.8815355826825918 9.652466665446356 -2.8032137506352157 -3.136914684301789 -7.020772016449852 13.573964948736194" Properties=species:S:1:pos:R:3 unique_starting_index=51 config_type=initial n_minim_iter=8 stress="0.0019361913185042673 -0.004144938322277566 0.001350145114026886 -0.004144938322277566 -0.0018070846593142942 -0.0007738147545944873 0.001350145114026886 -0.0007738147545944873 0.0006206151474949677" pbc="T T T"
Si       2.98157500       7.88343152       0.48300403
Si      -2.08408179      -0.18177373       7.01692708
Si       0.55565814       8.22967207      -3.37584530
Si      -1.36353150       4.61084171       1.85619499
Si      -0.13514044      -0.91072059       6.49354508
Si       4.74533009      -0.09231358       4.27695173
Si      -0.12454980       1.18330013       1.60826650
Si       0.27246109       1.97034803      -0.31907713
Si       1.04636669      -2.57599872       6.00315031
Si       3.02173663      -0.87234796       8.75148034
Si      -1.85849306       1.53856626       8.23508863
Si       4.77244386       1.24578990       2.61402362
Si      -0.19568396       3.04049302       2.63470717
Si       1.61778274      -4.39632346      13.68837868
Si       2.32268697      -2.42092875      10.62023843
Si       4.24877598       6.28487269       2.10749882
Si       1.51520651       0.43355851       0.46410246
Si       2.99038766       2.86500998       8.45007448
Si       2.00310832      -0.83818948       6.86453296
Si      -0.14417763      -1.65072394       4.50677518
Si       3.43455779       1.19778476       0.96478257
Si       2.62787666      -1.22384659       1.17865650
22
Lattice="6.072555859303255 -0.13629381427761939 -0.7437296395867277 -0.8738197201579614 9.659559360716719 -2.793773435115961 -3.147360268898304 -7.02346650574941 13.54870840937183" Properties=species:S:1:pos:R:3 unique_starting_index=51 config_type=initial n_minim_iter=9 stress="0.0009043034937612438 -0.0027977561795738295 -0.0006195318124696528 -0.0027977561795738295 0.0032548635967255273 0.0005573471915050765 -0.0006195318124696528 0.0005573471915050765 -0.0027215892815081223" pbc="T T T"
Si       2.98853083       7.89432705       0.48513781
Si      -2.08805516      -0.18019684       7.00640524
Si       0.56082348       8.23497996      -3.36311976
Si      -1.35995927       4.61450099       1.85774960
Si      -0.13862141      -0.91061329       6.48358379
Si       4.74281961      -0.08853017       4.26670421
Si      -0.12241683       1.18672096       1.60559526
Si       0.27155898       1.97194824      -0.32015891
Si       1.04482356      -2.57138273       5.99335858
Si       3.01863595      -0.86586675       8.73164898
Si      -1.86212904       1.54376768       8.22357348
Si       4.76831639       1.25488250       2.60730766
Si      -0.19429592       3.04567890       2.63366371
Si       1.60873828      -4.39444043      13.66039345
Si       2.31873517      -2.41811930      10.60059165
Si       4.25673664       6.29436532       2.10626583
Si       1.51499653       0.43427383       0.46299982
Si       2.99114418       2.87530175       8.43558824
Si       2.00228913      -0.83862615       6.85014519
Si      -0.14661941      -1.64967825       4.49661953
Si       3.43587571       1.20142179       0.95920593
Si       2.62989979      -1.22520609       1.17789031
22
Lattice="6.069657842774899 -0.13415744555170783 -0.7443126896823501 -0.8702167949404371 9.657945610017038 -2.7975985725793544 -3.148685259317716 -7.0264577642367385 13.557288919402273" Properties=species:S:1:pos:R:3 unique_starting_index=51 config_type=initial n_minim_iter=10 stress="-0.0018320253378480166 -0.0022474979879914627 -0.0007953284487799544 -0.0022474979879914627 0.0010484317468029926 -0.0016277855978813383 -0.0007953284487799544 -0.0016277855978813383 0.0022405489193140413" pbc="T T T"
Si       2.98963331       7.89358883       0.48319924
Si      -2.08764754      -0.18246536       7.01035564
Si       0.56269947       8.23417295      -3.36603619
Si      -1.35765124       4.61242206       1.85801803
Si      -0.13919320      -0.91268524       6.48730776
Si       4.73989820      -0.08834835       4.26847879
Si      -0.12161693       1.18638105       1.60640087
Si       0.27146913       1.97156040      -0.32157394
Si       1.04387776      -2.57113470       5.99759156
Si       3.01660743      -0.86654311       8.73514011
Si      -1.86156072       1.54094388       8.22753306
Si       4.76516467       1.25641527       2.60774608
Si      -0.19328933       3.04454418       2.63459788
Si       1.60566430      -4.39670500      13.66763038
Si       2.31669355      -2.41999700      10.60637960
Si       4.25766919       6.29390521       2.10589342
Si       1.51437574       0.43410261       0.46320428
Si       2.99059983       2.87365668       8.43875608
Si       2.00109285      -0.84079059       6.85306215
Si      -0.14715341      -1.65026120       4.49880104
Si       3.43430855       1.20184591       0.95801574
Si       2.62876439      -1.22484538       1.17925170
22
Lattice="6.069919787222253 -0.1285501386241061 -0.7450536905139158 -0.8597044031191936 9.659232207186584 -2.787739580352028 -3.159343430198274 -7.023556090711847 13.537830330522672" Properties=species:S:1:pos:R:3 unique_starting_index=51 config_type=initial n_minim_iter=11 stress="-0.0009167423608532094 -0.0015366871414224472 0.00011861421393452588 -0.0015366871414224472 0.0006832392950907807 -0.0011632018209702445 0.00011861421393452588 -0.0011632018209702445 -0.0007862200760526279" pbc="T T T"
Si       2.99619942       7.89977531       0.48623347
Si      -2.09029896      -0.17868692       7.00489065
Si       0.56910972       8.23677394      -3.35377228
Si      -1.35226099       4.61263676       1.86094059
Si      -0.14187054      -0.91188417       6.47956386
Si       4.73694341      -0.08038675       4.26254871
Si      -0.11932085       1.18909831       1.60913896
Si       0.27110917       1.97124873      -0.32346015
Si       1.04311245      -2.56305017       5.99234802
Si       3.01425534      -0.85555190       8.71969300
Si      -1.86472985       1.54542114       8.22147300
Si       4.76159895       1.26817066       2.60259174
Si      -0.19099186       3.04798418       2.63467690
Si       1.59654408      -4.38744031      13.64698263
Si       2.31315570      -2.41359107      10.59217333
Si       4.26900797       6.30384069       2.10926859
Si       1.51500782       0.43321258       0.46326982
Si       2.99349802       2.88315702       8.43027698
Si       1.99934088      -0.84058871       6.84104457
Si      -0.14820211      -1.64664204       4.49141262
Si       3.43341806       1.20564978       0.94993606
Si       2.62906447      -1.22279188       1.17840054
22
Lattice="6.070287704874816 -0.12580604881126906 -0.7480092486975353 -0.8528178172610628 9.65911486351684 -2.778173894831592 -3.170633972494568 -7.016606333946406 13.52633117512228" Properties=species:S:1:pos:R:3 unique_starting_index=51 config_type=initial n_minim_iter=12 stress="-0.0006198379285843525 -0.0018216620575552916 -0.0017202807057434487 -0.0018216620575552916 -0.0016942269312238388 -3.694193754949392e-06 -0.0017202807057434487 -3.694193754949392e-06 -0.00014988302721178956" pbc="T T T"
Si       2.99988701       7.90279051       0.48965578
Si      -2.09422219      -0.17295317       7.00426318
Si       0.57321719       8.23572290      -3.34457281
Si      -1.35074385       4.61517673       1.86597166
Si      -0.14644506      -0.90948687       6.47533016
Si       4.73296727      -0.07278243       4.25732379
Si      -0.11686164       1.19125103       1.61063314
Si       0.27069342       1.96923154      -0.32306583
Si       1.04108646      -2.55704621       5.98921788
Si       3.01028846      -0.84376223       8.70957777
Si      -1.87076381       1.55007622       8.22086143
Si       4.75669192       1.27651201       2.60009853
Si      -0.19138932       3.05068910       2.63492761
Si       1.58668455      -4.37595043      13.63516883
Si       2.30739866      -2.40647407      10.58277679
Si       4.27667868       6.30960826       2.11227007
Si       1.51285476       0.43354454       0.46414282
Si       2.99166263       2.89169628       8.42483729
Si       1.99618486      -0.83817822       6.83294471
Si      -0.15134955      -1.64231448       4.48655521
Si       3.43287895       1.20854380       0.94213801
Si       2.62903497      -1.22118614       1.17662431
22
Lattice="6.0715076507782655 -0.12055552098888142 -0.7486991664963814 -0.8430573289942889 9.666606319002158 -2.7696753801783407 -3.180429785144771 -7.017634822978115 13.514351922411075" Properties=species:S:1:pos:R:3 unique_starting_index=51 config_type=initial n_minim_iter=13 stress="0.000933863974421314 0.000786342892773188 0.00038243054597281016 0.000786342892773188 -0.00011325309536376263 -0.001658361506888979 0.00038243054597281016 -0.001658361506888979 -0.0008436723401348331" pbc="T T T"
Si       3.00830126       7.91336542       0.49383022
Si      -2.09554737      -0.16908661       7.00300632
Si       0.57940058       8.24084481      -3.33448589
Si      -1.34758364       4.62191381       1.87049951
Si      -0.14939130      -0.90824895       6.47168675
Si       4.73112903      -0.06365999       4.25371169
Si      -0.11588209       1.19555264       1.61463310
Si       0.27065540       1.96816716      -0.32186072
Si       1.04111421      -2.55453469       5.98647296
Si       3.01051840      -0.83090078       8.70079271
Si      -1.87314158       1.55426300       8.21913889
Si       4.75483625       1.28814420       2.59587594
Si      -0.18949210       3.05476082       2.63535244
Si       1.58139670      -4.36829265      13.62422358
Si       2.30524809      -2.40136640      10.57423614
Si       4.28873276       6.32108361       2.11607723
Si       1.51123627       0.43469793       0.46526882
Si       2.99439161       2.90367633       8.41969739
Si       1.99619233      -0.83497851       6.82588433
Si      -0.15415945      -1.63961384       4.48162810
Si       3.43461468       1.21368399       0.93592118
Si       2.62935168      -1.21938134       1.17559851
22
Lattice="6.073755541173524 -0.11875986905042897 -0.751371720272825 -0.8375248740884902 9.664114724575189 -2.7550069930689394 -3.19087775169375 -7.001605777647016 13.501622099537222" Properties=species:S:1:pos:R:3 unique_starting_index=51 config_type=initial n_minim_iter=14 stress="0.000896237648272591 0.0023781923545021554 2.183415599831774e-05 0.0023781923545021554 -0.0011359236435966277 -9.335907566852048e-05 2.183415599831774e-05 -9.335907566852048e-05 -0.0006810178804761626" pbc="T T T"
Si       3.01354258       7.91649128       0.50331187
Si      -2.09772484      -0.15974732       7.00365444
Si       0.58249363       8.23864804      -3.31842557
Si      -1.34819768       4.62614709       1.87843267
Si      -0.15510251      -0.90187839       6.46759714
Si       4.72852448      -0.05556290       4.24865615
Si      -0.11523507       1.19863521       1.61945618
Si       0.26843479       1.96453264      -0.31852326
Si       1.04057176      -2.54835268       5.98130351
Si       3.00998576      -0.81239961       8.69212741
Si      -1.87876472       1.56257308       8.22099637
Si       4.75031793       1.29737056       2.59285898
Si      -0.18812549       3.05969523       2.64057128
Si       1.57353729      -4.34742331      13.61078972
Si       2.30190050      -2.38836498      10.56524979
Si       4.29746292       6.32648099       2.12364852
Si       1.51084638       0.43419196       0.46630639
Si       2.99331542       2.91697700       8.41787542
Si       1.99626771      -0.82491167       6.81978011
Si      -0.15756923      -1.63134446       4.47993134
Si       3.43507104       1.21651969       0.92862337
Si       2.63002770      -1.21642147       1.17261304
22
Lattice="6.074714014379759 -0.11745975604770056 -0.7535613880139816 -0.8333918890193711 9.659258137446482 -2.7445178381211317 -3.198644818382903 -6.988068400402074 13.492241762111204" Properties=species:S:1:pos:R:3 unique_starting_index=51 config_type=initial n_minim_iter=15 stress="0.000792058224707234 0.0033154851532636834 -0.00012892673700540616 0.0033154851532636834 -0.0009744144695634112 0.0007075257326926437 -0.00012892673700540616 0.0007075257326926437 0.00017307476186229694" pbc="T T T"
Si       3.01693713       7.91674325       0.51041527
Si      -2.09590672      -0.15397235       7.00374179
Si       0.58391406       8.23748220      -3.30515356
Si      -1.34954867       4.62496570       1.88320366
Si      -0.16076610      -0.89706605       6.46890998
Si       4.72375413      -0.05170086       4.24302883
Si      -0.11399891       1.20106445       1.62538530
Si       0.26360258       1.95911441      -0.31684834
Si       1.04351146      -2.54411065       5.97652283
Si       3.01174205      -0.79623317       8.68281713
Si      -1.88478810       1.56566543       8.22551444
Si       4.74170118       1.30482233       2.58900545
Si      -0.18785764       3.06272117       2.64254083
Si       1.56904944      -4.32996008      13.60213450
Si       2.30003666      -2.38014779      10.55693325
Si       4.30344972       6.32900170       2.13039684
Si       1.50821022       0.43391897       0.46690239
Si       2.99157804       2.92620552       8.41641269
Si       1.99614421      -0.81659540       6.81401175
Si      -0.15928490      -1.62516861       4.47800498
Si       3.43448433       1.21833733       0.91826263
Si       2.63232428      -1.21466912       1.17133103
22
Lattice="6.0749247587846655 -0.11702923189595459 -0.7557741840536226 -0.8308728007606309 9.657119350666585 -2.737369877951038 -3.204309419190387 -6.978482097231137 13.48978993939675" Properties=species:S:1:pos:R:3 unique_starting_index=51 config_type=initial n_minim_iter=16 stress="0.001780608625542247 0.002878283014528006 -0.0002753776924221542 0.002878283014528006 0.00030904560463754287 0.0007050487327103878 -0.0002753776924221542 0.0007050487327103878 0.001362854054117163" pbc="T T T"
Si       3.01764517       7.91742738       0.51563030
Si      -2.09716567      -0.15018485       7.00597467
Si       0.58422989       8.23625314      -3.29537494
Si      -1.35131219       4.62538787       1.88785173
Si      -0.16289236      -0.89444090       6.46971221
Si       4.72052888      -0.04901190       4.24083760
Si      -0.11348360       1.20264149       1.62962238
Si       0.25963992       1.95632625      -0.31775053
Si       1.04448017      -2.53951038       5.97374726
Si       3.01308443      -0.78513429       8.67838282
Si      -1.88903306       1.56901143       8.23146249
Si       4.73558993       1.31040254       2.58631996
Si      -0.18907099       3.06551340       2.64568105
Si       1.56549960      -4.31815686      13.60121552
Si       2.29800929      -2.37427009      10.55376359
Si       4.30655896       6.33029660       2.13533271
Si       1.50573559       0.43512032       0.46926797
Si       2.98864286       2.93517037       8.41773874
Si       1.99500062      -0.81040985       6.81126848
Si      -0.15913454      -1.62126595       4.48082060
Si       3.43365931       1.21973602       0.91136895
Si       2.63448549      -1.21365355       1.17118352
22
Lattice="6.077908031646102 -0.11777627399655068 -0.7586015112625215 -0.8285259408287851 9.649837838881188 -2.714337431142939 -3.2138775390826577 -6.949995499347232 13.46360946564043" Properties=species:S:1:pos:R:3 unique_starting_index=51 config_type=initial n_minim_iter=17 stress="0.0018905554027005738 0.0006531988048363316 2.048526572188758e-05 0.0006531988048363316 0.0021819767904687104 0.0002769320167983163 2.048526572188758e-05 0.0002769320167983163 0.0024670011047955302" pbc="T T T"
Si       3.02238033       7.91617568       0.53069354
Si      -2.10057424      -0.13598066       7.00231979
Si       0.58339080       8.23004103      -3.26782241
Si      -1.35703948       4.62796196       1.89748227
Si      -0.16348957      -0.88423449       6.46475113
Si       4.71825575      -0.04062603       4.23249578
Si      -0.11240400       1.20551688       1.63657653
Si       0.25044077       1.95146215      -0.31952648
Si       1.04744047      -2.52582945       5.95987427
Si       3.01954084      -0.75952431       8.65768137
Si      -1.89827046       1.57782978       8.23338164
Si       4.72668610       1.31994953       2.57950454
Si      -0.19075135       3.07256868       2.65351666
Si       1.55997127      -4.28442283      13.57728854
Si       2.29679150      -2.35662923      10.53257814
Si       4.31440769       6.33071553       2.14575766
Si       1.50198727       0.43577834       0.47319399
Si       2.98502869       2.95769455       8.41429363
Si       1.99194753      -0.79508963       6.79663651
Si      -0.16221141      -1.61251255       4.47485194
Si       3.43282415       1.22117851       0.89944710
Si       2.63982485      -1.20937028       1.16895156
22
Lattice="6.088033088806537 -0.11947263063950422 -0.7606295645973858 -0.8290323543578252 9.648208724716467 -2.6916976232037206 -3.2252554764243246 -6.92754617168024 13.430189248965661" Properties=species:S:1:pos:R:3 unique_starting_index=51 config_type=initial n_minim_iter=18 stress="0.0044950127864973 0.000514014146495608 -0.0006133924755002844 0.000514014146495608 0.003741235631476591 -0.0009321179342659311 -0.0006133924755002844 -0.0009321179342659311 0.003585384487498493" pbc="T T T"
Si       3.02910763       7.91702406       0.54385330
Si      -2.10509348      -0.12455566       6.99358562
Si       0.57897667       8.22862917      -3.23597239
Si      -1.36779518       4.63145046       1.90338052
Si      -0.16341465      -0.87607644       6.45469414
Si       4.72326030      -0.03504763       4.22386331
Si      -0.11335867       1.21520735       1.64166229
Si       0.23609576       1.94742749      -0.32245333
Si       1.05245209      -2.51761356       5.94375730
Si       3.03548155      -0.73398436       8.62728573
Si      -1.91117721       1.58422214       8.23132989
Si       4.72003535       1.32787105       2.57174418
Si      -0.19180935       3.07889941       2.66011313
Si       1.55912337      -4.25793815      13.54733679
Si       2.30063055      -2.34466707      10.50310634
Si       4.33120521       6.33418037       2.15593943
Si       1.49952875       0.43607338       0.47757639
Si       2.98615863       2.97943943       8.40570665
Si       1.99099675      -0.78070634       6.77654291
Si      -0.16641167      -1.60348968       4.46543003
Si       3.43522009       1.22297915       0.88277970
Si       2.65072247      -1.20526919       1.16796782
22
Lattice="6.100015392869387 -0.1226827059693743 -0.7658923710633715 -0.8291811913938179 9.631280149112952 -2.6535470803149983 -3.2447247259844167 -6.878307133525642 13.378414600675248" Properties=species:S:1:pos:R:3 unique_starting_index=51 config_type=initial n_minim_iter=19 stress="0.00477863247080071 -0.0017679593550921826 -0.0016845082565913427 -0.0017679593550921826 0.0036441751363372223 -1.7719611447401477e-05 -0.0016845082565913427 -1.7719611447401477e-05 0.004501150791503732" pbc="T T T"
Si       3.03290262       7.90689652       0.56537227
Si      -2.11401084      -0.10893535       6.97989639
Si       0.56998702       8.21370951      -3.18342134
Si      -1.38668137       4.63182345       1.91364775
Si      -0.16650419      -0.85797000       6.44022321
Si       4.72830211      -0.02659375       4.21065968
Si      -0.11201458       1.22681588       1.64989239
Si       0.21454809       1.93628086      -0.32499103
Si       1.05952529      -2.50038981       5.91963279
Si       3.05906687      -0.68878569       8.57689393
Si      -1.93366598       1.59670248       8.23147041
Si       4.70546443       1.33821385       2.55545957
Si      -0.19574740       3.08228711       2.67296584
Si       1.54880596      -4.20029546      13.49938323
Si       2.30210004      -2.31985908      10.45522657
Si       4.35217718       6.32915708       2.17243089
Si       1.49368410       0.43981481       0.48564013
Si       2.98537675       3.00684670       8.39251780
Si       1.98744545      -0.75298870       6.74452402
Si      -0.17145625      -1.58482110       4.44844015
Si       3.43647509       1.22300116       0.86048423
Si       2.66490122      -1.19434131       1.16505673
22
Lattice="6.10444401193989 -0.12186636351138784 -0.7695348867216883 -0.822986541324995 9.63052837929696 -2.6222036252931864 -3.261665715249221 -6.851730421121185 13.32847090344844" Properties=species:S:1:pos:R:3 unique_starting_index=51 config_type=initial n_minim_iter=20 stress="0.006745404317780474 -0.0035725309162546004 -0.0013965174603275178 -0.0035725309162546004 0.010549590772715505 0.0011894298022216848 -0.0013965174603275178 0.0011894298022216848 0.004086298363612154" pbc="T T T"
Si       3.03802202       7.91117816       0.58229991
Si      -2.11927311      -0.09855303       6.96753039
Si       0.56524123       8.21263645      -3.13591726
Si      -1.40041520       4.63688140       1.91849838
Si      -0.16768816      -0.84648537       6.42505286
Si       4.72739825      -0.01638897       4.19397693
Si      -0.11239548       1.23773806       1.65574600
Si       0.19657906       1.92830864      -0.32605897
Si       1.06668215      -2.48912353       5.89735233
Si       3.08049683      -0.65005251       8.52586375
Si      -1.95122284       1.60192253       8.22531418
Si       4.69173942       1.34720805       2.54183501
Si      -0.19728071       3.09102421       2.68277255
Si       1.53542352      -4.16178613      13.45412957
Si       2.30103516      -2.30416974      10.40724308
Si       4.36657983       6.33465630       2.18456424
Si       1.48842252       0.44720779       0.49227934
Si       2.98583950       3.03184266       8.37463664
Si       1.98232904      -0.72974283       6.71303788
Si      -0.17502044      -1.57278637       4.43236385
Si       3.43401007       1.22766494       0.83872902
Si       2.67309547      -1.18311460       1.16213245
22
Lattice="6.106527513949521 -0.11761964511632923 -0.7739291813017786 -0.8117397375359454 9.630459603275604 -2.600141721083943 -3.281369851401293 -6.835920599546836 13.294599632998485" Properties=species:S:1:pos:R:3 unique_starting_index=51 config_type=initial n_minim_iter=21 stress="0.0030688067110690924 -0.00017247443884732113 0.00020804378875417971 -0.00017247443884732113 0.00857001896549531 0.0009541263341267406 0.00020804378875417971 0.0009541263341267406 0.0031535299637417105" pbc="T T T"
Si       3.04663922       7.91673678       0.59441877
Si      -2.12233453      -0.09563382       6.95973195
Si       0.56507045       8.21308457      -3.09938725
Si      -1.41152314       4.64027469       1.92051369
Si      -0.16711529      -0.84300272       6.41451530
Si       4.72344791      -0.00669742       4.18009210
Si      -0.11315975       1.24596450       1.66051786
Si       0.18109361       1.92123082      -0.32714374
Si       1.06594286      -2.47803910       5.88285429
Si       3.10022149      -0.61641543       8.48228502
Si      -1.96803509       1.60072999       8.22606911
Si       4.68085894       1.35664287       2.53035068
Si      -0.19959634       3.09600381       2.69317686
Si       1.51792210      -4.13271493      13.42277789
Si       2.29690987      -2.29383336      10.36887849
Si       4.38129276       6.34123478       2.19362059
Si       1.48320492       0.45450690       0.49614755
Si       2.98709087       3.04980389       8.36074119
Si       1.97424661      -0.70988908       6.68874985
Si      -0.17913469      -1.56515497       4.42101859
Si       3.43231299       1.23415666       0.82006263
Si       2.67856061      -1.17066766       1.16085582
