6
Lattice="3.48335 -2.1329367139049666e-16 -2.1329367139049666e-16 2.132936713904967e-16 3.48335 -2.4564269160487815e-49 5.764908465540246e-16 5.057132382029366e-32 9.414809999999997" Properties=species:S:1:pos:R:3 unique_starting_index=12 config_type=initial n_minim_iter=1 pbc="T T T"
Si       0.29504427       1.74167500       6.86964416
Si       0.29504427       1.74167500       2.54516584
Si       2.03671927       0.94167630       4.70740500
Si       2.03671927       2.54167370       4.70740500
Si       0.14378781      -0.00000000      -0.00000000
Si       1.88546281      -0.00000000      -0.00000000
6
Lattice="3.5011838511047784 -2.1438567982409352e-16 -2.1405959460591538e-16 2.1430936186220556e-16 3.4999374842022375 -1.9529685538963035e-35 5.775119725022736e-16 5.086492604621537e-32 9.417092808935223" Properties=species:S:1:pos:R:3 unique_starting_index=12 config_type=initial n_minim_iter=2 pbc="T T T"
Si       0.29657047       1.74996874       6.87121659
Si       0.29657047       1.74996874       2.54587622
Si       2.04714850       0.94586975       4.70854640
Si       2.04714850       2.55406774       4.70854640
Si       0.14452131      -0.00000000      -0.00000000
Si       1.89508375      -0.00000000      -0.00000000
6
Lattice="4.521401141987874 -2.768550752170484e-16 -2.5903171320182354e-16 2.7063146975691187e-16 4.419732327339603 5.879460852297913e-17 6.323082235493831e-16 1.5935047024082349e-16 9.539573771717293" Properties=species:S:1:pos:R:3 unique_starting_index=12 config_type=initial n_minim_iter=3 pbc="T T T"
Si       0.38391994       2.20986616       6.95584176
Si       0.38391994       2.20986616       2.58373201
Si       2.64379163       1.17669060       4.76978689
Si       2.64379163       3.24304173       4.76978689
Si       0.18644113      -0.00000000      -0.00000000
Si       2.44538587      -0.00000000      -0.00000000
6
Lattice="4.363973249482178 -2.6407874032388925e-16 -3.2135183044515396e-16 2.6493185358089135e-16 4.275543692241499 1.1222331172980389e-16 4.0552743581050584e-16 3.0823359073232243e-16 9.003674970208506" Properties=species:S:1:pos:R:3 unique_starting_index=12 config_type=initial n_minim_iter=4 pbc="T T T"
Si       0.36930127       2.13777185       6.56494115
Si       0.36930127       2.13777185       2.43873382
Si       2.55223332       1.12275448       4.50183749
Si       2.55223332       3.15278921       4.50183749
Si       0.17804555      -0.00000000      -0.00000000
Si       2.36365937      -0.00000000      -0.00000000
6
Lattice="4.183193296438569 -2.5027535749231323e-16 -3.8666161136730215e-16 2.693073373343991e-16 4.3068631989249875 2.358187195947118e-16 1.7292776924220867e-16 6.774703290005621e-16 8.586154797277295" Properties=species:S:1:pos:R:3 unique_starting_index=12 config_type=initial n_minim_iter=5 pbc="T T T"
Si       0.35301914       2.15343160       6.25875708
Si       0.35301914       2.15343160       2.32739771
Si       2.44655827       1.12596666       4.29307740
Si       2.44655827       3.18089654       4.29307740
Si       0.17272620      -0.00000000      -0.00000000
Si       2.26554926      -0.00000000      -0.00000000
6
Lattice="4.0727851141144855 -2.471920637899681e-16 -4.314345747472214e-16 2.723613505974211e-16 4.4183792357821465 8.679940185092133e-16 -1.2629181073963655e-17 2.500997053684175e-15 8.059103162763822" Properties=species:S:1:pos:R:3 unique_starting_index=12 config_type=initial n_minim_iter=6 pbc="T T T"
Si       0.34298448       2.20918962       5.86926125
Si       0.34298448       2.20918962       2.18984191
Si       2.38247059       1.15922687       4.02955158
Si       2.38247059       3.25915237       4.02955158
Si       0.16860055      -0.00000000      -0.00000000
Si       2.20578549      -0.00000000      -0.00000000
6
Lattice="4.097849474933977 -2.614155687424349e-16 -4.0965209982922643e-16 2.571793479699142e-16 4.380088504067272 1.9188936628870314e-15 5.591576027254919e-18 5.42672832491394e-15 7.782000558514576" Properties=species:S:1:pos:R:3 unique_starting_index=12 config_type=initial n_minim_iter=7 pbc="T T T"
Si       0.34493833       2.19004425       5.66517097
Si       0.34493833       2.19004425       2.11682959
Si       2.39736379       1.14776187       3.89100028
Si       2.39736379       3.23232663       3.89100028
Si       0.16971042      -0.00000000      -0.00000000
Si       2.21913921      -0.00000000      -0.00000000
6
Lattice="4.163044664548183 -2.7404017426528535e-16 -3.7197358139623154e-16 2.445933785666152e-16 4.324363913460142 3.223147579977438e-15 -8.896992905756077e-18 9.642380593609499e-15 6.958676940494256" Properties=species:S:1:pos:R:3 unique_starting_index=12 config_type=initial n_minim_iter=8 pbc="T T T"
Si       0.34947675       2.16218196       5.06261793
Si       0.34947675       2.16218196       1.89605902
Si       2.43584029       1.12729685       3.47933847
Si       2.43584029       3.19706707       3.47933847
Si       0.17423757      -0.00000000      -0.00000000
Si       2.25384580      -0.00000000      -0.00000000
6
Lattice="4.353121552307769 -2.9066241404283053e-16 -3.2381843462580333e-16 2.4702014992534777e-16 4.452190520893787 4.229651787895503e-15 2.494580255455561e-17 1.3491437588664698e-14 6.306660410239248" Properties=species:S:1:pos:R:3 unique_starting_index=12 config_type=initial n_minim_iter=9 pbc="T T T"
Si       0.36510964       2.22609526       4.59101168
Si       0.36510964       2.22609526       1.71564873
Si       2.54677804       1.14200757       3.15333021
Si       2.54677804       3.31018295       3.15333021
Si       0.18415806      -0.00000000      -0.00000000
Si       2.35599064      -0.00000000      -0.00000000
6
Lattice="4.3346968443656335 -2.9137291865386414e-16 -3.5547140261692973e-16 2.3750449736949706e-16 4.336203792910297 5.5779687920001186e-15 -7.618844395585456e-17 1.6984688871139987e-14 6.191235683133576" Properties=species:S:1:pos:R:3 unique_starting_index=12 config_type=initial n_minim_iter=10 pbc="T T T"
Si       0.36360271       2.16810190       4.50669074
Si       0.36360271       2.16810190       1.68454494
Si       2.53591263       1.12554544       3.09561784
Si       2.53591263       3.21065836       3.09561784
Si       0.18227670      -0.00000000      -0.00000000
Si       2.34721615      -0.00000000      -0.00000000
6
Lattice="4.333368790983025 -2.9159976446073e-16 -2.332977421734308e-16 2.3860293251958277e-16 4.357000152745179 8.023496159679172e-15 2.4335930475901305e-16 2.3817056744022076e-14 6.129767080886222" Properties=species:S:1:pos:R:3 unique_starting_index=12 config_type=initial n_minim_iter=11 pbc="T T T"
Si       0.36375572       2.17850008       4.46163243
Si       0.36375572       2.17850008       1.66813465
Si       2.53486991       1.12821574       3.06488354
Si       2.53486991       3.22878442       3.06488354
Si       0.18094468      -0.00000000      -0.00000000
Si       2.34777589      -0.00000000      -0.00000000
6
Lattice="4.348168575823433 -2.937141116982139e-16 -6.387116574093738e-16 2.407373239585549e-16 4.408066185218386 9.767223932717096e-15 -8.58166034197857e-16 2.93862226723425e-14 5.932989380114951" Properties=species:S:1:pos:R:3 unique_starting_index=12 config_type=initial n_minim_iter=12 pbc="T T T"
Si       0.36594711       2.20403309       4.31745250
Si       0.36594711       2.20403309       1.61553688
Si       2.54232912       1.13392466       2.96649469
Si       2.54232912       3.27414153       2.96649469
Si       0.17798557      -0.00000000      -0.00000000
Si       2.35986957      -0.00000000      -0.00000000
6
Lattice="4.374913779013963 -2.9622714943879203e-16 8.361028719531891e-16 2.361271302196297e-16 4.355726799757893 1.2702184298450105e-14 3.0982168322866654e-15 3.712792142593067e-14 5.902535605974437" Properties=species:S:1:pos:R:3 unique_starting_index=12 config_type=initial n_minim_iter=13 pbc="T T T"
Si       0.36879990       2.17786340       4.29528121
Si       0.36879990       2.17786340       1.60725439
Si       2.55724377       1.12977013       2.95126780
Si       2.55724377       3.22595667       2.95126780
Si       0.17868824      -0.00000000       0.00000000
Si       2.37501925      -0.00000000       0.00000000
6
Lattice="4.381427729456817 -2.9649120018983898e-16 -4.438973645408957e-15 2.383891446410542e-16 4.387835426532594 1.6281297515429202e-14 -1.1144763500150576e-14 4.707396947174549e-14 5.900549959435616" Properties=species:S:1:pos:R:3 unique_starting_index=12 config_type=initial n_minim_iter=14 pbc="T T T"
Si       0.36967153       2.19391771       4.29376022
Si       0.36967153       2.19391771       1.60678974
Si       2.56066008       1.13494747       2.95027498
Si       2.56066008       3.25288796       2.95027498
Si       0.17869628      -0.00000000      -0.00000000
Si       2.37895098      -0.00000000      -0.00000000
6
Lattice="4.388361521011052 -2.9732929496789077e-16 1.4630059406933985e-14 2.3934401062315414e-16 4.408761718364213 2.071937924913886e-14 4.027912714920044e-14 5.936677735893917e-14 5.886825679868589" Properties=species:S:1:pos:R:3 unique_starting_index=12 config_type=initial n_minim_iter=15 pbc="T T T"
Si       0.37069744       2.20438086       4.28364320
Si       0.37069744       2.20438086       1.60318248
Si       2.56413850       1.13873131       2.94341284
Si       2.56413850       3.27003041       2.94341284
Si       0.17867431      -0.00000000       0.00000000
Si       2.38328660      -0.00000000       0.00000000
6
Lattice="4.3906682719209185 -3.130266168154153e-16 -1.8682740280568962e-14 2.2309891066083634e-16 4.399432160330613 2.542856385518224e-14 -4.969893991953369e-14 7.203751572279161e-14 5.879967810597003" Properties=species:S:1:pos:R:3 unique_starting_index=12 config_type=initial n_minim_iter=16 pbc="T T T"
Si       0.37103914       2.19971608       4.27861984
Si       0.37103914       2.19971608       1.60134797
Si       2.56528219       1.13821759       2.93998391
Si       2.56528219       3.26121457       2.93998391
Si       0.17870299      -0.00000000      -0.00000000
Si       2.38471926      -0.00000000      -0.00000000
