8
Lattice="4.1427 -2.53667214741387e-16 1.7916300111266933e-62 2.53667214741387e-16 4.1427 1.6817935621468474e-47 2.418233029077273e-31 3.9492742409663605e-15 9.410379999999996" Properties=species:S:1:pos:R:3 unique_starting_index=34 config_type=initial n_minim_iter=1 pbc="T T T"
Si       0.68412589       1.78258972       5.74552539
Si       0.68412589       2.36011028       3.66485461
Si       0.68412589       3.68471664       8.75444452
Si       0.68412589       0.45798336       0.65593548
Si       3.45857411       0.28876028       8.37004461
Si       3.45857411       3.85393972       1.04033539
Si       3.45857411       2.52933336       5.36112548
Si       3.45857411       1.61336664       4.04925452
8
Lattice="4.176947279022702 -2.5576425577311994e-16 3.0333396624098965e-33 2.5529721976277043e-16 4.169320002151124 0.004868445903986673 6.771655899610065e-19 0.011058953331400835 9.471148034052773" Properties=species:S:1:pos:R:3 unique_starting_index=34 config_type=initial n_minim_iter=2 pbc="T T T"
Si       0.69089385       1.80020689       5.78527821
Si       0.69089385       2.38017206       3.69073827
Si       0.69085725       3.71741083       8.81439892
Si       0.69085725       0.46296812       0.66161756
Si       3.48605343       0.30104154       8.42387807
Si       3.48605343       3.87933742       1.05213841
Si       3.48609003       2.55315760       5.39962580
Si       3.48609003       1.62722135       4.07639068
8
Lattice="4.384106628720273 -2.6844575884088765e-16 -1.2614972635034091e-20 2.6507071759480284e-16 4.328876580382303 0.03731125830567244 5.160605981932411e-18 0.08475465733326942 9.786873312085097" Properties=species:S:1:pos:R:3 unique_starting_index=34 config_type=initial n_minim_iter=3 pbc="T T T"
Si       0.73216721       1.91026473       5.99448333
Si       0.73216721       2.50336651       3.82970124
Si       0.73188917       3.91966448       9.13140007
Si       0.73188917       0.49396676       0.69278450
Si       3.65193942       0.38130555       8.70448226
Si       3.65193942       4.03232569       1.11970231
Si       3.65221746       2.70078237       5.60487679
Si       3.65221746       1.71284886       4.21930778
8
Lattice="4.987190180134813 -3.052752855252302e-16 -6.62887831712738e-19 2.857593943450461e-16 4.664823808381571 0.11275585351425536 1.4073921951935425e-17 0.25613137055385643 10.31145717084039" Properties=species:S:1:pos:R:3 unique_starting_index=34 config_type=initial n_minim_iter=4 pbc="T T T"
Si       0.85704420       2.14765770       6.35262904
Si       0.85704420       2.77329748       4.07158399
Si       0.85614736       4.35063065       9.67056802
Si       0.85614736       0.57032453       0.75364500
Si       4.13014598       0.56895126       9.17093465
Si       4.13014598       4.35200392       1.25327838
Si       4.13104282       3.03080212       5.96575152
Si       4.13104282       1.89015306       4.45846151
8
Lattice="5.414023758801523 -3.285087892898981e-16 -3.76428153164138e-18 3.0347159109185586e-16 4.9037116036618595 0.183910392474208 1.6267523923661577e-17 0.417762975627353 10.461085560310554" Properties=species:S:1:pos:R:3 unique_starting_index=34 config_type=initial n_minim_iter=5 pbc="T T T"
Si       0.94788968       2.33905207       6.47324309
Si       0.94788968       2.98242251       4.17175287
Si       0.94526243       4.68669897       9.85611979
Si       0.94526243       0.63477561       0.78887616
Si       4.46613408       0.73944820       9.31034045
Si       4.46613408       4.58202638       1.33465550
Si       4.46876133       3.29551289       6.11137414
Si       4.46876133       2.02596168       4.53362182
8
Lattice="5.117821965190671 -3.0360343391857584e-16 -7.894627439577791e-18 3.060512561874119e-16 4.842629088664517 0.23118646460448478 1.3848448811874439e-17 0.5251532775206396 10.296152547905134" Properties=species:S:1:pos:R:3 unique_starting_index=34 config_type=initial n_minim_iter=6 pbc="T T T"
Si       0.88625653       2.38222450       6.39005807
Si       0.88625653       2.98555786       4.13728095
Si       0.88353243       4.73251087       9.73964643
Si       0.88353243       0.63527150       0.78769258
Si       4.23156543       0.82681996       9.16976399
Si       4.23156543       4.54096241       1.35757502
Si       4.23428954       3.31916268       6.05136208
Si       4.23428954       2.04861969       4.47597693
8
Lattice="5.18481483136447 -3.0756439131368253e-16 -1.3834894000682674e-17 3.092814977871828e-16 4.892637318011786 0.2311484882672292 -2.0700635077775609e-19 0.5250670120984264 10.233680887302343" Properties=species:S:1:pos:R:3 unique_starting_index=34 config_type=initial n_minim_iter=7 pbc="T T T"
Si       0.90045887       2.40152970       6.35115523
Si       0.90045887       3.01617463       4.11367415
Si       0.89715013       4.77212069       9.67969163
Si       0.89715013       0.64558364       0.78513775
Si       4.28435596       0.83238948       9.11494035
Si       4.28435596       4.58531485       1.34988903
Si       4.28766470       3.35443581       6.01755243
Si       4.28766470       2.06326852       4.44727694
8
Lattice="5.257369153473093 -3.1038259771590177e-16 -1.751227741025947e-17 3.1624562963712813e-16 4.980858697976747 0.236909749158625 -8.976441357065778e-18 0.5381540457400601 10.079982886244537" Properties=species:S:1:pos:R:3 unique_starting_index=34 config_type=initial n_minim_iter=8 pbc="T T T"
Si       0.91666348       2.44359264       6.25808344
Si       0.91666348       3.07542010       4.05880919
Si       0.91213337       4.85339152       9.53818698
Si       0.91213337       0.66562122       0.77870566
Si       4.34070567       0.85406778       8.98034576
Si       4.34070567       4.66494497       1.33654687
Si       4.34523578       3.42512760       5.93715197
Si       4.34523578       2.09388515       4.37974066
8
Lattice="5.240272861475626 -3.0737390864011566e-16 -1.9606063760588648e-17 3.211859718941328e-16 5.033108348285417 0.2485647711790714 -1.2969446516676913e-17 0.5646290948917697 9.89573898908492" Properties=species:S:1:pos:R:3 unique_starting_index=34 config_type=initial n_minim_iter=9 pbc="T T T"
Si       0.91478013       2.47928324       6.14888548
Si       0.91478013       3.11845421       3.99541829
Si       0.90904365       4.91653227       9.37420687
Si       0.90904365       0.68120517       0.77009689
Si       4.32549274       0.88421458       8.81900539
Si       4.32549274       4.71352286       1.32529837
Si       4.33122921       3.48007389       5.84224877
Si       4.33122921       2.11766355       4.30205499
8
Lattice="5.164305596682388 -3.034304797953256e-16 -7.963215248203383e-18 3.347176301292604e-16 5.278594820448282 0.3472828634960794 2.0876094485151385e-17 0.7888728879682912 8.814545486710031" Properties=species:S:1:pos:R:3 unique_starting_index=34 config_type=initial n_minim_iter=10 pbc="T T T"
Si       0.90466206       2.70706175       5.51861989
Si       0.90466206       3.36040596       3.64320846
Si       0.89226783       5.30256590       8.44668335
Si       0.89226783       0.76490180       0.71514500
Si       4.25964354       1.11554499       7.87683977
Si       4.25964354       4.95192272       1.28498858
Si       4.27203777       3.79863566       5.29605917
Si       4.27203777       2.26883205       3.86576918
8
Lattice="5.301178019039054 -3.254624358699261e-16 -6.746947889268114e-18 3.2991164500808584e-16 5.426684136094022 0.2850866529448879 1.5607656640771545e-17 0.6475906382647763 9.342783417549663" Properties=species:S:1:pos:R:3 unique_starting_index=34 config_type=initial n_minim_iter=11 pbc="T T T"
Si       0.92782948       2.67212999       5.82539694
Si       0.92782948       3.40214479       3.80247313
Si       0.91180305       5.29351489       8.88267351
Si       0.91180305       0.78075989       0.74519656
Si       4.37334854       1.01259804       8.33132151
Si       4.37334854       5.06167674       1.29654856
Si       4.38937497       3.81789728       5.55913159
Si       4.38937497       2.25637750       4.06873848
8
Lattice="5.164454366093259 -3.2933026007803513e-16 -4.896636837399143e-18 3.084853633426486e-16 5.276337893721825 0.2764206373731046 1.8426970634191337e-17 0.6279052882234136 8.937307763574843" Properties=species:S:1:pos:R:3 unique_starting_index=34 config_type=initial n_minim_iter=12 pbc="T T T"
Si       0.89899346       2.60130520       5.56938366
Si       0.89899346       3.30293798       3.64434474
Si       0.88289129       5.15369993       8.50406087
Si       0.88289129       0.75054326       0.70966753
Si       4.26546090       0.97872168       7.97478830
Si       4.26546090       4.92552150       1.23894010
Si       4.28156308       3.70266485       5.31653173
Si       4.28156308       2.20157834       3.89719667
8
Lattice="5.180493523219574 -3.4042836146990153e-16 -2.515759472390345e-18 2.9933642665469156e-16 5.292175207710051 0.28160033868396556 2.4567219832323935e-17 0.6396712760143952 8.967136417370833" Properties=species:S:1:pos:R:3 unique_starting_index=34 config_type=initial n_minim_iter=13 pbc="T T T"
Si       0.90165273       2.61375275       5.59059519
Si       0.90165273       3.31809373       3.65814157
Si       0.88500101       5.17675343       8.53613313
Si       0.88500101       0.75509306       0.71260363
Si       4.27884080       0.99184177       8.00090961
Si       4.27884080       4.94000472       1.24782715
Si       4.29549251       3.72101630       5.33697200
Si       4.29549251       2.21083018       3.91176475
8
Lattice="5.177775293475892 -3.502276572185674e-16 -7.977604162255787e-19 2.8962877241067497e-16 5.295783970907587 0.2871011428580656 2.9311107806358157e-17 0.6521666673253425 8.980217114390953" Properties=species:S:1:pos:R:3 unique_starting_index=34 config_type=initial n_minim_iter=14 pbc="T T T"
Si       0.90033584       2.62189736       5.60160809
Si       0.90033584       3.32605328       3.66571017
Si       0.88315631       5.19041323       8.55309420
Si       0.88315631       0.75753741       0.71422406
Si       4.27743945       1.00424463       8.01226816
Si       4.27743945       4.94370601       1.25505010
Si       4.29461898       3.73151273       5.34788318
Si       4.29461898       2.21643791       3.91943507
8
Lattice="5.182465537673462 -3.6049190325059126e-16 4.809993753152009e-19 2.798161335663537e-16 5.298753301563048 0.2887243574749637 3.246341037207946e-17 0.6558538921706268 8.983883721296293" Properties=species:S:1:pos:R:3 unique_starting_index=34 config_type=initial n_minim_iter=15 pbc="T T T"
Si       0.90101724       2.62479586       5.60483879
Si       0.90101724       3.32981133       3.66776929
Si       0.88357754       5.19581810       8.55796353
Si       0.88357754       0.75878910       0.71464455
Si       4.28144830       1.00836162       8.01534897
Si       4.28144830       4.94624557       1.25725911
Si       4.29888799       3.73609269       5.35094859
Si       4.29888799       2.21851450       3.92165949
8
Lattice="5.1805458179971975 -3.699587812958293e-16 1.4380678423499219e-18 2.7022274358558416e-16 5.298378487364262 0.2897842441152868 3.4805799932535164e-17 0.6582614852964532 8.984968014340998" Properties=species:S:1:pos:R:3 unique_starting_index=34 config_type=initial n_minim_iter=16 pbc="T T T"
Si       0.90043307       2.62590903       5.60609962
Si       0.90043307       3.33073094       3.66865264
Si       0.88287084       5.19754049       8.55992403
Si       0.88287084       0.75909949       0.71482823
Si       4.28011275       1.01067244       8.01624452
Si       4.28011275       4.94596753       1.25850774
Si       4.29767498       3.73741947       5.35220436
Si       4.29767498       2.21922050       3.92254790
8
Lattice="5.181267302377882 -3.792877210479703e-16 2.124247803539983e-18 2.609682330536974e-16 5.29893686678329 0.2904565390986374 3.647446457287048e-17 0.6597886418043899 8.985897688079351" Properties=species:S:1:pos:R:3 unique_starting_index=34 config_type=initial n_minim_iter=17 pbc="T T T"
Si       0.90044995       2.62685546       5.60707564
Si       0.90044995       3.33187005       3.66927859
Si       0.88278097       5.19923349       8.56140107
Si       0.88278097       0.75949202       0.71495315
Si       4.28081736       1.01229594       8.01699917
Si       4.28081736       4.94642957       1.25935506
Si       4.29848633       3.73885478       5.35313027
Si       4.29848633       2.21987073       3.92322396
8
Lattice="5.181563910970857 -3.8824463422788595e-16 2.585296891470906e-18 2.5205281474122686e-16 5.29933970545901 0.2913049918712868 3.7663331437958174e-17 0.6617159508064104 8.986880232730755" Properties=species:S:1:pos:R:3 unique_starting_index=34 config_type=initial n_minim_iter=18 pbc="T T T"
Si       0.90034100       2.62794258       5.60818738
Si       0.90034100       3.33311308       3.66999784
Si       0.88254069       5.20113017       8.56308927
Si       0.88254069       0.75992549       0.71509595
Si       4.28122291       1.01430120       8.01778546
Si       4.28122291       4.94675445       1.26039976
Si       4.29902322       3.74045332       5.35418856
Si       4.29902322       2.22060234       3.92399666
8
Lattice="5.186195505889614 -3.971333147256578e-16 2.595374143284961e-18 2.437080971174702e-16 5.304192918232034 0.3020082402698821 3.9516343060897956e-17 0.6860289917374883 8.998031461845372" Properties=species:S:1:pos:R:3 unique_starting_index=34 config_type=initial n_minim_iter=19 pbc="T T T"
Si       0.89904713       2.64139106       5.62153055
Si       0.89904713       3.34883085       3.67850915
Si       0.87950260       5.22473380       8.58328069
Si       0.87950260       0.76548811       0.71675901
Si       4.28714838       1.03974888       8.02652076
Si       4.28714838       4.95047303       1.27351894
Si       4.30669290       3.76059907       5.36677886
Si       4.30669290       2.22962284       3.93326084
8
Lattice="5.191566331399349 -4.0589897090787363e-16 2.4617121891978878e-18 2.34760244585623e-16 5.299074857418507 0.30662617811885257 4.010558379136086e-17 0.6965189016936045 8.983506554604546" Properties=species:S:1:pos:R:3 unique_starting_index=34 config_type=initial n_minim_iter=20 pbc="T T T"
Si       0.89764101       2.64192815       5.61665414
Si       0.89764101       3.35366561       3.67347860
Si       0.87614467       5.22712440       8.57482058
Si       0.87614467       0.76846936       0.71531215
Si       4.29392533       1.05238763       8.01191878
Si       4.29392533       4.94320612       1.27821395
Si       4.31542166       3.76626624       5.36037852
Si       4.31542166       2.22932752       3.92975422
8
Lattice="5.197477962397413 -4.144094442836093e-16 2.5149934219855066e-18 2.266338627347255e-16 5.300759378449427 0.3066899264631907 4.0258929984739216e-17 0.696663709703979 8.983348627248123" Properties=species:S:1:pos:R:3 unique_starting_index=34 config_type=initial n_minim_iter=21 pbc="T T T"
Si       0.89849517       2.64203314       5.61690937
Si       0.89849517       3.35538995       3.67312918
Si       0.87668159       5.22816858       8.57488816
Si       0.87668159       0.76925451       0.71515039
Si       4.29898280       1.05334212       8.01145853
Si       4.29898280       4.94408097       1.27858002
Si       4.32079637       3.76796605       5.36016967
Si       4.32079637       2.22945703       3.92986888
8
Lattice="5.195298479883645 -4.220248317663109e-16 2.4741565207684928e-18 2.1882487687466326e-16 5.299489570561276 0.3070314160200104 4.022387686344941e-17 0.697439422764476 8.982736362555748" Properties=species:S:1:pos:R:3 unique_starting_index=34 config_type=initial n_minim_iter=22 pbc="T T T"
Si       0.89784916       2.64180498       5.61681168
Si       0.89784916       3.35512402       3.67295610
Si       0.87591773       5.22768088       8.57468459
Si       0.87591773       0.76924812       0.71508319
Si       4.29744932       1.05409894       8.01080857
Si       4.29744932       4.94283005       1.27895921
Si       4.31938075       3.76771261       5.35996708
Si       4.31938075       2.22921638       3.92980070
8
Lattice="5.196248534871086 -4.2956633657470606e-16 2.344337802296369e-18 2.1132876131227677e-16 5.299591579069802 0.3071204431689529 3.9950712675075175e-17 0.6976416530253832 8.98247320344927" Properties=species:S:1:pos:R:3 unique_starting_index=34 config_type=initial n_minim_iter=23 pbc="T T T"
Si       0.89790893       2.64176150       5.61679838
Si       0.89790893       3.35547173       3.67279527
Si       0.87587144       5.22779718       8.57457383
Si       0.87587144       0.76943606       0.71501981
Si       4.29833961       1.05449677       8.01047165
Si       4.29833961       4.94273646       1.27912200
Si       4.32037709       3.76805267       5.35981664
Si       4.32037709       2.22918056       3.92977701
8
Lattice="5.196656679461782 -4.367743584830545e-16 2.1431297972285908e-18 2.041250864141606e-16 5.299466242591069 0.3072446441401405 3.9520627952932504e-17 0.6979237826353585 8.98215609071112" Properties=species:S:1:pos:R:3 unique_starting_index=34 config_type=initial n_minim_iter=24 pbc="T T T"
Si       0.89785230       2.64168662       5.61676589
Si       0.89785230       3.35570340       3.67263484
Si       0.87571104       5.22780594       8.57444345
Si       0.87571104       0.76958408       0.71495728
Si       4.29880438       1.05493217       8.01009057
Si       4.29880438       4.94245785       1.27931017
Si       4.32094564       3.76827909       5.35965765
Si       4.32094564       2.22911093       3.92974309
8
Lattice="5.2093028134234896 -4.439364512799479e-16 1.6329941009472796e-18 1.9710538863628467e-16 5.295920871331885 0.31084596618730786 3.916267936590596e-17 0.7061043916503044 8.972605945076593" Properties=species:S:1:pos:R:3 unique_starting_index=34 config_type=initial n_minim_iter=25 pbc="T T T"
Si       0.89627087       2.63942157       5.61566605
Si       0.89627087       3.36260369       3.66778586
Si       0.87104096       5.22804169       8.57037109
Si       0.87104096       0.77398357       0.71308082
Si       4.31303195       1.06769545       7.99866585
Si       4.31303195       4.93432981       1.28478606
Si       4.33826185       3.77499621       5.35480677
Si       4.33826185       2.22702906       3.92864514
8
Lattice="5.304769814206198 -4.515121822261611e-16 -3.1569264899098723e-19 1.8959871318345301e-16 5.258519181364173 0.32572687496311226 3.8704087539683515e-17 0.7399072270778396 8.855115966171338" Properties=species:S:1:pos:R:3 unique_starting_index=34 config_type=initial n_minim_iter=26 pbc="T T T"
Si       0.88204517       2.60163967       5.57303284
Si       0.88204517       3.39678674       3.60781000
Si       0.83222447       5.19655456       8.48785763
Si       0.83222447       0.80187185       0.69298521
Si       4.42272464       1.13748076       7.87250455
Si       4.42272464       4.86094565       1.30833829
Si       4.47254534       3.80108505       5.28340663
Si       4.47254534       2.19734136       3.89743621
8
Lattice="5.384108578560663 -4.546035671110377e-16 -1.520952932252002e-18 1.8450930450066127e-16 5.202837951924726 0.30958332863947047 3.4888667559313094e-17 0.7032362382413162 8.548756599462472" Properties=species:S:1:pos:R:3 unique_starting_index=34 config_type=initial n_minim_iter=27 pbc="T T T"
Si       0.89552079       2.55507110       5.37385840
Si       0.89552079       3.35100309       3.48448153
Si       0.84264372       5.11925011       8.19579579
Si       0.84264372       0.78682408       0.66254414
Si       4.48858779       1.10120224       7.60406816
Si       4.48858779       4.80487195       1.25427176
Si       4.54146486       3.73986117       5.09171410
Si       4.54146486       2.16621302       3.76662583
8
Lattice="5.3161218167490345 -4.5273275820002e-16 -1.3806649194909904e-19 1.8663791356372072e-16 5.233940777939017 0.3221270569179789 3.9078747071991913e-17 0.7317300344895413 8.729723122924485" Properties=species:S:1:pos:R:3 unique_starting_index=34 config_type=initial n_minim_iter=28 pbc="T T T"
Si       0.87999723       2.58591736       5.49219658
Si       0.87999723       3.37975345       3.55965360
Si       0.82713573       5.17213463       8.37357872
Si       0.82713573       0.79353618       0.67827146
Si       4.43612458       1.12864808       7.76345163
Si       4.43612458       4.83702274       1.28839855
Si       4.48898609       3.77637159       5.20419655
Si       4.48898609       2.18929922       3.84765363
8
Lattice="5.353553080181139 -4.577358250657105e-16 5.560404601316524e-19 1.8637817439493424e-16 5.27353744710781 0.3241373584299997 4.0741682334415726e-17 0.7362965493573049 8.81393148077261" Properties=species:S:1:pos:R:3 unique_starting_index=34 config_type=initial n_minim_iter=29 pbc="T T T"
Si       0.88684750       2.60331771       5.54581843
Si       0.88684750       3.40651629       3.59225041
Si       0.83312409       5.20844902       8.45320766
Si       0.83312409       0.80138498       0.68486118
Si       4.46670558       1.13789584       7.83714747
Si       4.46670558       4.87193816       1.30092137
Si       4.52042899       3.80630197       5.25389560
Si       4.52042899       2.20353202       3.88417324
8
Lattice="5.3314912692870555 -4.584903411564997e-16 6.610220046672073e-19 1.8437269650218296e-16 5.268148317744276 0.3278352791834302 4.1479573850928375e-17 0.7446965878586852 8.831932222983333" Properties=species:S:1:pos:R:3 unique_starting_index=34 config_type=initial n_minim_iter=30 pbc="T T T"
Si       0.88187498       2.60636976       5.55880044
Si       0.88187498       3.40647515       3.60096707
Si       0.82797870       5.21167563       8.47315972
Si       0.82797870       0.80116927       0.68660778
Si       4.44961629       1.14474928       7.85301554
Si       4.44961629       4.86809562       1.30675196
Si       4.50351257       3.80759173       5.26649154
Si       4.50351257       2.20525318       3.89327597
8
Lattice="5.339604786889574 -4.614421045186375e-16 7.074919771674687e-19 1.822608178058089e-16 5.274587819631623 0.32820219923618216 4.163105338391987e-17 0.7455300677452342 8.843568549585857" Properties=species:S:1:pos:R:3 unique_starting_index=34 config_type=initial n_minim_iter=31 pbc="T T T"
Si       0.88332837       2.60897713       5.56636632
Si       0.88332837       3.41114076       3.60540443
Si       0.82911648       5.21742251       8.48432573
Si       0.82911648       0.80269537       0.68744502
Si       4.45627642       1.14661188       7.86308760
Si       4.45627642       4.87350601       1.30868315
Si       4.51048830       3.81275432       5.27333040
Si       4.51048830       2.20736357       3.89844035
8
Lattice="5.342830183479949 -4.638687964319264e-16 4.5466400013158495e-19 1.800569849625572e-16 5.276055488398645 0.3304811496340529 4.1578479084343785e-17 0.7507068339231154 8.836849023136493" Properties=species:S:1:pos:R:3 unique_starting_index=34 config_type=initial n_minim_iter=32 pbc="T T T"
Si       0.88389482       2.61264023       5.56303598
Si       0.88389482       3.41412210       3.60429420
Si       0.82951975       5.22321235       8.48009372
Si       0.82951975       0.80354997       0.68723646
Si       4.45893536       1.15144777       7.85747813
Si       4.45893536       4.87531455       1.30985204
Si       4.51331043       3.81693113       5.27090154
Si       4.51331043       2.20983119       3.89642863
8
Lattice="5.3449211454140375 -4.662573680518963e-16 3.667160168632795e-19 1.7787325003931927e-16 5.277594563494111 0.3306541609020006 4.1410939179116994e-17 0.751099838913987 8.839157140595134" Properties=species:S:1:pos:R:3 unique_starting_index=34 config_type=initial n_minim_iter=33 pbc="T T T"
Si       0.88426042       2.61333652       5.56459813
Si       0.88426042       3.41535788       3.60521318
Si       0.82977592       5.22472084       8.48241549
Si       0.82977592       0.80397357       0.68739581
Si       4.46066073       1.15211052       7.85946467
Si       4.46066073       4.87658388       1.31034664
Si       4.51514523       3.81832077       5.27230146
Si       4.51514523       2.21037364       3.89750984
8
Lattice="5.346864348078296 -4.685688339836574e-16 1.997695900568939e-19 1.7572685792331676e-16 5.278780509128488 0.3312982703880226 4.1177013583624255e-17 0.7525629704526144 8.838738254763824" Properties=species:S:1:pos:R:3 unique_starting_index=34 config_type=initial n_minim_iter=34 pbc="T T T"
Si       0.88459742       2.61458022       5.56461751
Si       0.88459742       3.41676326       3.60541902
Si       0.83000226       5.22691975       8.48261511
Si       0.83000226       0.80442373       0.68742142
Si       4.46226693       1.15365449       7.85913901
Si       4.46226693       4.87768899       1.31089751
Si       4.51686209       3.82009547       5.27243968
Si       4.51686209       2.21124801       3.89759684
8
Lattice="5.35260719904084 -4.710514214555137e-16 -7.033614320327099e-20 1.7369503124446525e-16 5.281870737104544 0.33302333154793085 4.0960053948231976e-17 0.7564815455456667 8.837216206567641" Properties=species:S:1:pos:R:3 unique_starting_index=34 config_type=initial n_minim_iter=35 pbc="T T T"
Si       0.88554770       2.61775021       5.56446573
Si       0.88554770       3.42060207       3.60577381
Si       0.83055414       5.23265464       8.48285062
Si       0.83055414       0.80569765       0.68738892
Si       4.46705949       1.15790747       7.85787024
Si       4.46705949       4.88044481       1.31236929
Si       4.52205306       3.82487379       5.27250869
Si       4.52205306       2.21347850       3.89773085
8
Lattice="5.349577195640538 -4.728852607500682e-16 -1.9376581327001124e-19 1.7148950678218072e-16 5.278769106045738 0.3323244883292618 4.053377873258334e-17 0.7548940832027223 8.834894749019453" Properties=species:S:1:pos:R:3 unique_starting_index=34 config_type=initial n_minim_iter=36 pbc="T T T"
Si       0.88485843       2.61551962       5.56278148
Si       0.88485843       3.41814357       3.60443776
Si       0.82982111       5.22869854       8.48022268
Si       0.82982111       0.80496465       0.68699656
Si       4.46471877       1.15620606       7.85572289
Si       4.46471877       4.87745713       1.31149635
Si       4.51975608       3.82179625       5.27060618
Si       4.51975608       2.21186694       3.89661306
8
Lattice="5.349782489655419 -4.749426947496416e-16 -3.4703593723776205e-19 1.6944728564958511e-16 5.278862322202426 0.3322749109326967 4.017028219183562e-17 0.754781465310746 8.835842179719567" Properties=species:S:1:pos:R:3 unique_starting_index=34 config_type=initial n_minim_iter=37 pbc="T T T"
Si       0.88485056       2.61539484       5.56339531
Si       0.88485056       3.41824894       3.60472178
Si       0.82974207       5.22861459       8.48110464
Si       0.82974207       0.80502920       0.68701245
Si       4.46493193       1.15620852       7.85650541
Si       4.46493193       4.87743527       1.31161168
Si       4.52004042       3.82185110       5.27107099
Si       4.52004042       2.21179269       3.89704610
8
Lattice="5.349877399223626 -4.769486310756917e-16 -5.256924937990343e-19 1.6742877255721038e-16 5.278697229001308 0.33234301869665683 3.978027585268152e-17 0.7549361759921435 8.83566757770315" Properties=species:S:1:pos:R:3 unique_starting_index=34 config_type=initial n_minim_iter=38 pbc="T T T"
Si       0.88481726       2.61534139       5.56334659
Si       0.88481726       3.41829202       3.60466401
Si       0.82963484       5.22856775       8.48105503
Si       0.82963484       0.80506566       0.68695557
Si       4.46506014       1.15641149       7.85632629
Si       4.46506014       4.87722191       1.31168431
Si       4.52024256       3.82188236       5.27096087
Si       4.52024256       2.21175105       3.89704973
8
Lattice="5.350191123336957 -4.789293472015131e-16 -7.164980508512078e-19 1.6544356629728137e-16 5.2785536041050705 0.3324800417429409 3.937956143717512e-17 0.7552474316790847 8.83530692529551" Properties=species:S:1:pos:R:3 unique_starting_index=34 config_type=initial n_minim_iter=39 pbc="T T T"
Si       0.88480443       2.61535088       5.56322287
Si       0.88480443       3.41845016       3.60456409
Si       0.82951052       5.22865322       8.48091670
Si       0.82951052       0.80514782       0.68687026
Si       4.46538669       1.15679707       7.85597754
Si       4.46538669       4.87700396       1.31180943
Si       4.52068060       3.82204834       5.27076375
Si       4.52068060       2.21175270       3.89702322
8
Lattice="5.351474107933568 -4.80873620948318e-16 -9.487792239866268e-19 1.6348468537552303e-16 5.278011655405607 0.33300108154704006 3.8979788235490874e-17 0.7564310033960104 8.833547841062162" Properties=species:S:1:pos:R:3 unique_starting_index=34 config_type=initial n_minim_iter=40 pbc="T T T"
Si       0.88478613       2.61540719       5.56249876
Si       0.88478613       3.41903546       3.60405017
Si       0.82908080       5.22899468       8.48002445
Si       0.82908080       0.80544798       0.68652447
Si       4.46668797       1.15824514       7.85432355
Si       4.46668797       4.87619752       1.31222538
Si       4.52239331       3.82266931       5.26979893
Si       4.52239331       2.21177335       3.89674999
8
Lattice="5.363826326321653 -4.828416930129055e-16 -1.5234399223015032e-18 1.6154116609858184e-16 5.274588683703612 0.337153414895836 3.8696375116906467e-17 0.7658632660987984 8.821319706056537" Properties=species:S:1:pos:R:3 unique_starting_index=34 config_type=initial n_minim_iter=41 pbc="T T T"
Si       0.88486234       2.61578882       5.55797824
Si       0.88486234       3.42466313       3.60049488
Si       0.82546869       5.23220911       8.47484878
Si       0.82546869       0.80824284       0.68362434
Si       4.47896399       1.17030042       7.84257803
Si       4.47896399       4.87015153       1.31589509
Si       4.53835763       3.82846882       5.26286090
Si       4.53835763       2.21198313       3.89561222
8
Lattice="5.360858439346572 -4.841279046994282e-16 -1.792325180204489e-18 1.5982610472889963e-16 5.270973166727684 0.3381283902576409 3.8335650259121676e-17 0.7680779783988013 8.812087988334545" Properties=species:S:1:pos:R:3 unique_starting_index=34 config_type=initial n_minim_iter=42 pbc="T T T"
Si       0.88412038       2.61566124       5.55259501
Si       0.88412038       3.42338990       3.59762137
Si       0.82453556       5.23124778       8.46734739
Si       0.82453556       0.80780336       0.68286899
Si       4.47673806       1.17194231       7.83460117
Si       4.47673806       4.86710884       1.31561521
Si       4.53632288       3.82732894       5.25797718
Si       4.53632288       2.21172221       3.89223920
8
Lattice="5.363049066424072 -4.859235603042849e-16 -1.8886397124509442e-18 1.5829871809907915e-16 5.273162895799842 0.3379976593893116 3.806858248489886e-17 0.7677810157539743 8.817014597510841" Properties=species:S:1:pos:R:3 unique_starting_index=34 config_type=initial n_minim_iter=43 pbc="T T T"
Si       0.88452382       2.61617625       5.55568105
Si       0.88452382       3.42476766       3.59933120
Si       0.82482291       5.23265981       8.47183489
Si       0.82482291       0.80828410       0.68317737
Si       4.47852525       1.17207672       7.83883967
Si       4.47852525       4.86886719       1.31617258
Si       4.53822616       3.82875606       5.26068349
Si       4.53822616       2.21218786       3.89432876
8
Lattice="5.364755762438393 -4.876187121132703e-16 -2.0195073018353293e-18 1.5674865478803468e-16 5.27418388688427 0.337908780596265 3.775130061112697e-17 0.767579122491972 8.818610635599008" Properties=species:S:1:pos:R:3 unique_starting_index=34 config_type=initial n_minim_iter=44 pbc="T T T"
Si       0.88480737       2.61627585       5.55669672
Si       0.88480737       3.42548716       3.59982270
Si       0.82495138       5.23320483       8.47333262
Si       0.82495138       0.80855818       0.68318679
Si       4.47994839       1.17218478       7.84017363
Si       4.47994839       4.86957823       1.31634579
Si       4.53980438       3.82943968       5.26144650
Si       4.53980438       2.21232333       3.89507292
8
Lattice="5.364241465940041 -4.891065096976406e-16 -2.185255738500308e-18 1.5518201446437762e-16 5.273505861749553 0.3380185430016206 3.740481688741713e-17 0.7678284540738182 8.817183589342926" Properties=species:S:1:pos:R:3 unique_starting_index=34 config_type=initial n_minim_iter=45 pbc="T T T"
Si       0.88466743       2.61612699       5.55585774
Si       0.88466743       3.42520733       3.59934439
Si       0.82475558       5.23286252       8.47216184
Si       0.82475558       0.80847179       0.68304030
Si       4.47957404       1.17236862       7.83892691
Si       4.47957404       4.86896569       1.31627522
Si       4.53948589       3.82913895       5.26064136
Si       4.53948589       2.21219537       3.89456077
