16
Lattice="5.458730496634071 0.22926762585012075 0.467630947005191 2.2967911729346273 5.1784363706340955 0.6294264191902679 3.711003519808908 1.8125219705029476 13.126682414641483" Properties=species:S:1:pos:R:3 unique_starting_index=3 config_type=initial n_minim_iter=1 energy=-2610.231820725566 free_energy=-2610.231820725566 pbc="T T T"
Si       6.68688751       6.79441093       7.05219650
Si       6.71406283       3.78499723      13.24765609
Si       1.65380470       2.05576883       3.45861481
Si       5.40917026       2.20393111       2.65692803
Si       6.44435952       1.64423746       5.86263888
Si       7.61847827       2.13446963       7.56901637
Si       3.51725666       3.05496614       3.25661441
Si       7.33721116       3.37547008       2.11793373
Si       3.77571818       1.70102880       8.45325298
Si       5.77826498       1.16076811       8.01261610
Si       8.36130635       3.77180010       9.49922335
Si       2.85813240       2.40765861       5.17763039
Si       5.22772567       7.12731003      11.06109542
Si       4.98455991       2.33072457      10.07301838
Si       6.63107752       3.35613013      11.04438070
Si       4.83544125       0.66883723       1.02745782
16
Lattice="5.458694094985708 0.22918508854713016 0.4676187753062043 2.296697629239183 5.178471761401896 0.6293918481687898 3.710945127265467 1.812432958529078 13.126457227180357" Properties=species:S:1:pos:R:3 unique_starting_index=3 config_type=initial n_minim_iter=2 stress="-0.0001367044161872937 -8.902298057167497e-05 -9.647220518799613e-05 -8.902298057167497e-05 3.0880029351466884e-05 1.1815064396550182e-05 -9.647220518799613e-05 1.1815064396550182e-05 -0.00012163776827971308" pbc="T T T"
Si       6.68673852       6.79437401       7.05204260
Si       6.71396166       3.78488938      13.24742247
Si       1.65377801       2.05576049       3.45855905
Si       5.40909560       2.20387602       2.65686764
Si       6.44428244       1.64413055       5.86252512
Si       7.61839275       2.13434983       7.56888239
Si       3.51718437       3.05494633       3.25653181
Si       7.33711416       3.37539534       2.11788677
Si       3.77565381       1.70095224       8.45311674
Si       5.77821513       1.16066272       8.01246911
Si       8.36119067       3.77169489       9.49904327
Si       2.85807928       2.40762508       5.17754724
Si       5.22758098       7.12727796      11.06088150
Si       4.98448325       2.33062794      10.07283536
Si       6.63097793       3.35602061      11.04417009
Si       4.83540417       0.66877030       1.02743375
16
Lattice="5.458782836897761 0.22915118414335364 0.46770164681909904 2.2967106620503936 5.178527584261494 0.6293843003016305 3.7111963105827304 1.8123291235107621 13.126475106827202" Properties=species:S:1:pos:R:3 unique_starting_index=3 config_type=initial n_minim_iter=3 stress="0.0002503339960105901 -0.00013616972745934372 6.469212728870038e-05 -0.00013616972745934372 0.00018220964122748085 -1.574964993961888e-05 6.469212728870038e-05 -1.574964993961888e-05 0.00015406206349437204" pbc="T T T"
Si       6.68690736       6.79437441       7.05206829
Si       6.71425986       3.78479437      13.24747995
Si       1.65387647       2.05575600       3.45858358
Si       5.40919121       2.20387100       2.65692167
Si       6.44444138       1.64405400       5.86258658
Si       7.61861030       2.13427453       7.56897773
Si       3.51726881       3.05495514       3.25652630
Si       7.33723798       3.37538136       2.11798411
Si       3.77580550       1.70087719       8.45316817
Si       5.77843233       1.16058206       8.01252133
Si       8.36144385       3.77163376       9.49911914
Si       2.85819942       2.40759898       5.17759301
Si       5.22779064       7.12725411      11.06088645
Si       4.98470124       2.33053338      10.07287288
Si       6.63123177       3.35592209      11.04420225
Si       4.83549526       0.66874673       1.02749947
16
Lattice="5.458731314481238 0.22920778338953857 0.46777098110035753 2.2967535367624268 5.178522178590691 0.6293535025945509 3.711373226915839 1.8122331902666737 13.126213730633363" Properties=species:S:1:pos:R:3 unique_starting_index=3 config_type=initial n_minim_iter=4 stress="-5.980808240715954e-05 -5.690554558969298e-06 0.00010837840990084008 -5.690554558969298e-06 -5.415537395494963e-05 -3.4979562860514014e-05 0.00010837840990084008 -3.4979562860514014e-05 -2.6150371804734975e-06" pbc="T T T"
Si       6.68701059       6.79434965       7.05192411
Si       6.71444810       3.78472111      13.24725719
Si       1.65398254       2.05573728       3.45854305
Si       5.40917531       2.20392769       2.65691132
Si       6.44444259       1.64403936       5.86251035
Si       7.61866135       2.13428018       7.56891417
Si       3.51731278       3.05497139       3.25642390
Si       7.33722585       3.37542629       2.11803802
Si       3.77585882       1.70082156       8.45304946
Si       5.77851183       1.16057031       8.01239238
Si       8.36154109       3.77162622       9.49898301
Si       2.85829230       2.40756620       5.17754828
Si       5.22797535       7.12717026      11.06064345
Si       4.98482329       2.33045309      10.07269351
Si       6.63136737       3.35584100      11.04397653
Si       4.83547412       0.66879671       1.02753744
16
Lattice="5.4587890646184505 0.22925512088952543 0.4676827652632346 2.296811651961943 5.1785929949834815 0.6293295044830044 3.711224799385692 1.812322318777909 13.126068149050663" Properties=species:S:1:pos:R:3 unique_starting_index=3 config_type=initial n_minim_iter=5 stress="8.408844370773918e-05 4.569262286827291e-05 -6.168289802572355e-05 4.569262286827291e-05 1.6851137250210934e-05 -1.1951695174468519e-06 -6.168289802572355e-05 -1.1951695174468519e-06 -2.0787538426911315e-05" pbc="T T T"
Si       6.68702407       6.79449054       7.05178480
Si       6.71436344       3.78485323      13.24708100
Si       1.65398119       2.05578221       3.45851251
Si       5.40921398       2.20402466       2.65681710
Si       6.44442709       1.64411082       5.86236227
Si       7.61864784       2.13438925       7.56875319
Si       3.51732999       3.05505916       3.25632131
Si       7.33730395       3.37552503       2.11793404
Si       3.77575770       1.70087711       8.45294659
Si       5.77845295       1.16065866       8.01223659
Si       8.36151948       3.77176589       9.49879957
Si       2.85827312       2.40763012       5.17750634
Si       5.22791536       7.12732159      11.06050197
Si       4.98474947       2.33053132      10.07255559
Si       6.63129616       3.35594232      11.04377694
Si       4.83552661       0.66885076       1.02745263
16
Lattice="5.458694243037314 0.22922283810782812 0.467726621440322 2.2967391071303114 5.178639624542716 0.6293892878906264 3.7112423936256076 1.8124181009265055 13.126169270836515" Properties=species:S:1:pos:R:3 unique_starting_index=3 config_type=initial n_minim_iter=6 stress="-0.00012522205453601712 2.544681395971164e-05 4.5336341002600344e-05 2.544681395971164e-05 0.00010912490637696046 0.0001407952969243602 4.5336341002600344e-05 0.0001407952969243602 0.00010044578849331318" pbc="T T T"
Si       6.68690084       6.79455775       7.05193151
Si       6.71436352       3.78494917      13.24725479
Si       1.65399602       2.05581919       3.45858194
Si       5.40914859       2.20411025       2.65691057
Si       6.44432774       1.64408771       5.86242733
Si       7.61851989       2.13442566       7.56885245
Si       3.51727455       3.05515322       3.25628973
Si       7.33716229       3.37553345       2.11806483
Si       3.77570708       1.70086248       8.45304377
Si       5.77833778       1.16072135       8.01229296
Si       8.36141817       3.77182472       9.49895229
Si       2.85824750       2.40769363       5.17764083
Si       5.22785605       7.12747301      11.06062553
Si       4.98474611       2.33055003      10.07268471
Si       6.63122041       3.35596323      11.04381533
Si       4.83546761       0.66884965       1.02748527
16
Lattice="5.458816297286461 0.22908462123346343 0.46768824117069274 2.296684923511432 5.178431520413398 0.6291410442464925 3.711255647273751 1.811727260167456 13.125708771681346" Properties=species:S:1:pos:R:3 unique_starting_index=3 config_type=initial n_minim_iter=7 stress="4.6055164313455886e-05 4.483155754018309e-06 1.52574964571481e-05 4.483155754018309e-06 -3.277624315000445e-05 8.369638160629518e-06 1.52574964571481e-05 8.369638160629518e-06 -6.009822638919569e-05" pbc="T T T"
Si       6.68688703       6.79390352       7.05146281
Si       6.71449093       3.78413802      13.24675654
Si       1.65403041       2.05557556       3.45843478
Si       5.40928075       2.20396419       2.65677419
Si       6.44441770       1.64358979       5.86214295
Si       7.61856943       2.13389899       7.56850232
Si       3.51729088       3.05496314       3.25590411
Si       7.33725331       3.37521970       2.11790065
Si       3.77568044       1.70029014       8.45277388
Si       5.77831363       1.16027326       8.01194719
Si       8.36153483       3.77111597       9.49851514
Si       2.85824191       2.40738939       5.17747418
Si       5.22781420       7.12672976      11.05995898
Si       4.98482285       2.32985468      10.07231397
Si       6.63123716       3.35517759      11.04319390
Si       4.83560719       0.66871921       1.02739240
16
Lattice="5.458755597051454 0.22902044505273686 0.4676609364302251 2.296605119647883 5.17841468836361 0.629035303747705 3.7111276051506263 1.8114358381666473 13.125849397303426" Properties=species:S:1:pos:R:3 unique_starting_index=3 config_type=initial n_minim_iter=8 stress="-8.490947735396812e-05 6.510242277977352e-08 -5.2820335536004084e-05 6.510242277977352e-08 1.7142932028412374e-05 -0.00010469419405603248 -5.2820335536004084e-05 -0.00010469419405603248 0.00013232733071439774" pbc="T T T"
Si       6.68671066       6.79370052       7.05141519
Si       6.71435040       3.78381998      13.24686869
Si       1.65399426       2.05549454       3.45845264
Si       5.40922228       2.20392861       2.65676739
Si       6.44429688       1.64338006       5.86215023
Si       7.61842263       2.13368008       7.56855065
Si       3.51719776       3.05491238       3.25583255
Si       7.33712937       3.37512728       2.11784605
Si       3.77551443       1.70006401       8.45284765
Si       5.77815195       1.16008020       8.01199015
Si       8.36137765       3.77084250       9.49852960
Si       2.85815623       2.40729778       5.17749547
Si       5.22763916       7.12647803      11.05995762
Si       4.98470354       2.32956216      10.07240557
Si       6.63105705       3.35487542      11.04320040
Si       4.83556698       0.66866580       1.02735877
16
Lattice="5.45881919036972 0.2289676756558058 0.46770231427083186 2.2965833579947907 5.178391865848619 0.6290841999492205 3.7112682169329436 1.8114994761918464 13.125638442800724" Properties=species:S:1:pos:R:3 unique_starting_index=3 config_type=initial n_minim_iter=9 stress="1.7237722271982553e-05 -3.483807584839938e-05 7.080799852200434e-06 -3.483807584839938e-05 -3.2581593121814547e-05 1.0890474598524768e-06 7.080799852200434e-06 1.0890474598524768e-06 -3.7521343223236496e-05" pbc="T T T"
Si       6.68677332       6.79366189       7.05140828
Si       6.71454682       3.78385137      13.24672255
Si       1.65404444       2.05550313       3.45842476
Si       5.40931973       2.20395983       2.65680806
Si       6.44440126       1.64332316       5.86209159
Si       7.61854812       2.13365926       7.56850904
Si       3.51722316       3.05493589       3.25579915
Si       7.33719243       3.37507581       2.11792248
Si       3.77554925       1.70006294       8.45272606
Si       5.77823028       1.16010357       8.01187033
Si       8.36153865       3.77081121       9.49844077
Si       2.85821245       2.40734507       5.17743007
Si       5.22773276       7.12650044      11.05984651
Si       4.98483172       2.32952939      10.07227784
Si       6.63118158       3.35486788      11.04301601
Si       4.83564801       0.66863791       1.02737768
16
Lattice="5.4588543332190325 0.22904164171157873 0.46780783342811705 2.2966559091566223 5.178672399692634 0.6292334763760381 3.7115602175512117 1.8119084532653964 13.125556923223293" Properties=species:S:1:pos:R:3 unique_starting_index=3 config_type=initial n_minim_iter=10 stress="-1.1556089493543727e-05 2.9980214685376163e-05 2.254089371710395e-06 2.9980214685376163e-05 5.040557778030654e-05 -1.4508886354858876e-05 2.254089371710395e-06 -1.4508886354858876e-05 -2.9503685927886656e-05" pbc="T T T"
Si       6.68694309       6.79414163       7.05158321
Si       6.71504082       3.78438434      13.24683503
Si       1.65421624       2.05567538       3.45848664
Si       5.40954839       2.20445582       2.65703049
Si       6.44455821       1.64344996       5.86214057
Si       7.61865985       2.13399301       7.56864338
Si       3.51728676       3.05532429       3.25586342
Si       7.33728553       3.37541467       2.11818277
Si       3.77560242       1.70024741       8.45281587
Si       5.77822205       1.16047904       8.01181135
Si       8.36187912       3.77124404       9.49850544
Si       2.85841923       2.40776101       5.17739551
Si       5.22802069       7.12710147      11.06000122
Si       4.98502979       2.32961196      10.07221296
Si       6.63145794       3.35524296      11.04287548
Si       4.83580267       0.66879832       1.02743666
16
Lattice="5.45885460105154 0.2289000172522157 0.4678302333588229 2.296517686509296 5.178538634779134 0.6293757021142096 3.7115425127552246 1.812107749041435 13.12574785776452" Properties=species:S:1:pos:R:3 unique_starting_index=3 config_type=initial n_minim_iter=11 stress="-1.095487000835805e-05 -4.515618208336001e-05 -4.527452380970496e-05 -4.515618208336001e-05 -7.060407052024293e-05 4.7593697922963064e-05 -4.527452380970496e-05 4.7593697922963064e-05 5.5367601190868335e-05" pbc="T T T"
Si       6.68669838       6.79400610       7.05181655
Si       6.71508190       3.78447497      13.24713895
Si       1.65423360       2.05565020       3.45863709
Si       5.40954797       2.20452725       2.65717716
Si       6.44457468       1.64332456       5.86229136
Si       7.61851796       2.13391160       7.56878686
Si       3.51719979       3.05535295       3.25599194
Si       7.33720671       3.37528202       2.11830773
Si       3.77544369       1.70024540       8.45297316
Si       5.77813350       1.16056009       8.01188245
Si       8.36186464       3.77114577       9.49870063
Si       2.85842155       2.40785269       5.17749812
Si       5.22780968       7.12710169      11.06035315
Si       4.98500090       2.32948787      10.07235220
Si       6.63138445       3.35524007      11.04299172
Si       4.83587434       0.66872428       1.02745572
16
Lattice="5.458858912147842 0.2289090162926152 0.4679182133227725 2.296533672690222 5.178666872205606 0.6293654688651233 3.7117872138312094 1.8120657283857913 13.125450767177828" Properties=species:S:1:pos:R:3 unique_starting_index=3 config_type=initial n_minim_iter=12 stress="-1.4184579592620195e-05 2.581442668289696e-05 -5.570855728739227e-06 2.581442668289696e-05 4.19314451616072e-05 -2.0642606566274852e-05 -5.570855728739227e-06 -2.0642606566274852e-05 -5.089656352570937e-05" pbc="T T T"
Si       6.68678013       6.79413095       7.05169985
Si       6.71540493       3.78449057      13.24691656
Si       1.65433648       2.05564681       3.45860013
Si       5.40961097       2.20470689       2.65722034
Si       6.44470265       1.64329018       5.86228496
Si       7.61860169       2.13390851       7.56869843
Si       3.51727712       3.05548803       3.25596019
Si       7.33725111       3.37541820       2.11835573
Si       3.77551713       1.70016116       8.45276840
Si       5.77820233       1.16056883       8.01173797
Si       8.36208196       3.77116169       9.49855862
Si       2.85855040       2.40792749       5.17739789
Si       5.22797814       7.12718476      11.06014825
Si       4.98519987       2.32932761      10.07212401
Si       6.63157449       3.35523247      11.04273732
Si       4.83595649       0.66877437       1.02750352
16
Lattice="5.458863637182425 0.2285246577592866 0.468177886047322 2.2961893983777313 5.178431110165493 0.6296162528973752 3.712261937319886 1.8121295441459804 13.125714862719029" Properties=species:S:1:pos:R:3 unique_starting_index=3 config_type=initial n_minim_iter=13 stress="-5.07737988563766e-07 1.3690558002842181e-05 -7.0836187449655215e-06 1.3690558002842181e-05 1.1466493645290921e-05 1.29311211150432e-05 -7.0836187449655215e-06 1.29311211150432e-05 -1.6493455992347698e-05" pbc="T T T"
Si       6.68655362       6.79373737       7.05211287
Si       6.71599268       3.78434088      13.24747223
Si       1.65445359       2.05551333       3.45872208
Si       5.40956875       2.20481878       2.65761385
Si       6.44481983       1.64283149       5.86282868
Si       7.61874745       2.13354659       7.56909683
Si       3.51733561       3.05557251       3.25626073
Si       7.33715088       3.37506288       2.11881297
Si       3.77551923       1.69987848       8.45295271
Si       5.77818469       1.16037039       8.01201487
Si       8.36240984       3.77060457       9.49907010
Si       2.85865593       2.40793839       5.17771411
Si       5.22784462       7.12691722      11.06075263
Si       4.98548361       2.32860579      10.07223461
Si       6.63170978       3.35498636      11.04304585
Si       4.83621703       0.66858007       1.02772889
16
Lattice="5.458855234666206 0.22817882057174724 0.4683245197977851 2.295881331288457 5.178168284444518 0.6296676034453833 3.7124906070901993 1.811822403691915 13.125905111290777" Properties=species:S:1:pos:R:3 unique_starting_index=3 config_type=initial n_minim_iter=14 stress="1.4803845849605592e-05 -6.137416924046839e-06 -5.798061620511938e-06 -6.137416924046839e-06 -1.6875032723080854e-05 4.879954686731821e-06 -5.798061620511938e-06 4.879954686731821e-06 -1.5971964627869305e-06" pbc="T T T"
Si       6.68625195       6.79316536       7.05228619
Si       6.71623864       3.78383409      13.24778635
Si       1.65447451       2.05533918       3.45875782
Si       5.40951490       2.20469022       2.65782277
Si       6.44486143       1.64232008       5.86305298
Si       7.61879698       2.13304993       7.56933677
Si       3.51729322       3.05546820       3.25641000
Si       7.33704878       3.37461588       2.11904789
Si       3.77548028       1.69942441       8.45307017
Si       5.77819007       1.15992109       8.01220802
Si       8.36250900       3.76990301       9.49934801
Si       2.85856758       2.40773094       5.17783786
Si       5.22747983       7.12640528      11.06105428
Si       4.98561923       2.32784251      10.07231026
Si       6.63176936       3.35439253      11.04324233
Si       4.83637589       0.66836248       1.02786138
16
Lattice="5.458727145184797 0.2278373023193489 0.46856665980054696 2.2955289625998927 5.178112739303198 0.6297229983980324 3.7128765868265257 1.811506793342364 13.12601106010021" Properties=species:S:1:pos:R:3 unique_starting_index=3 config_type=initial n_minim_iter=15 stress="-2.554604917392097e-05 -2.8932901488927724e-05 4.5305986016908585e-05 -2.8932901488927724e-05 -2.4757112649859374e-05 2.0328927932526485e-05 4.5305986016908585e-05 2.0328927932526485e-05 -1.496800884459399e-06" pbc="T T T"
Si       6.68574953       6.79291530       7.05240743
Si       6.71662101       3.78343468      13.24806597
Si       1.65448623       2.05523124       3.45876052
Si       5.40943948       2.20472256       2.65813343
Si       6.44483408       1.64181400       5.86320403
Si       7.61875457       2.13266902       7.56957874
Si       3.51726570       3.05559894       3.25661585
Si       7.33691990       3.37433634       2.11939738
Si       3.77544975       1.69891031       8.45316326
Si       5.77820181       1.15938101       8.01241543
Si       8.36267630       3.76920100       9.49962281
Si       2.85850112       2.40753769       5.17794925
Si       5.22726189       7.12608737      11.06130426
Si       4.98578022       2.32692245      10.07242252
Si       6.63175955       3.35385160      11.04346336
Si       4.83655846       0.66824715       1.02808587
16
Lattice="5.4586060210585 0.22767958453368828 0.4685690704136223 2.295335173323744 5.178353050566837 0.6295291207259608 3.7127940958963572 1.8110349119806297 13.125700488733635" Properties=species:S:1:pos:R:3 unique_starting_index=3 config_type=initial n_minim_iter=16 stress="2.7921966280335554e-06 -9.342263458814697e-06 2.5496384123318292e-05 -9.342263458814697e-06 -2.6599458441700233e-07 3.818966269710234e-06 2.5496384123318292e-05 3.818966269710234e-06 5.246653732832125e-06" pbc="T T T"
Si       6.68527754       6.79306215       7.05192646
Si       6.71664695       3.78311755      13.24774883
Si       1.65459035       2.05526910       3.45857161
Si       5.40930840       2.20501487       2.65807955
Si       6.44442573       1.64138451       5.86299392
Si       7.61837269       2.13247698       7.56924316
Si       3.51715935       3.05599544       3.25663030
Si       7.33698657       3.37444383       2.11935341
Si       3.77512065       1.69821898       8.45290269
Si       5.77793451       1.15879550       8.01217594
Si       8.36267795       3.76857943       9.49932485
Si       2.85826472       2.40743480       5.17763876
Si       5.22680000       7.12601832      11.06091677
Si       4.98567561       2.32582667      10.07220711
Si       6.63132350       3.35332367      11.04320270
Si       4.83687300       0.66840340       1.02810001
16
Lattice="5.458552822653292 0.22773895455828155 0.46847071171021315 2.295365538468529 5.178389899175393 0.629420371220584 3.712531906147038 1.810888389747423 13.12587986635715" Properties=species:S:1:pos:R:3 unique_starting_index=3 config_type=initial n_minim_iter=17 stress="1.5360086157807155e-05 1.4084036104157722e-06 7.421254965997082e-07 1.4084036104157722e-06 5.063396896698962e-07 -6.261532499595329e-06 7.421254965997082e-07 -6.261532499595329e-06 2.6307792261336885e-05" pbc="T T T"
Si       6.68509007       6.79313161       7.05192163
Si       6.71647333       3.78309881      13.24785231
Si       1.65456450       2.05528860       3.45848480
Si       5.40916550       2.20517806       2.65795231
Si       6.44420427       1.64133614       5.86286260
Si       7.61804591       2.13243875       7.56929019
Si       3.51713480       3.05623421       3.25666531
Si       7.33714568       3.37460297       2.11926561
Si       3.77490497       1.69795249       8.45294415
Si       5.77776096       1.15870815       8.01210744
Si       8.36257303       3.76844585       9.49929523
Si       2.85810536       2.40745821       5.17764795
Si       5.22656036       7.12594002      11.06093936
Si       4.98542322       2.32535234      10.07232384
Si       6.63093851       3.35315087      11.04333646
Si       4.83705904       0.66862554       1.02804401
16
Lattice="5.458450878643184 0.22792206349741925 0.4683717260982345 2.2954866931628226 5.178445514556332 0.6293726158214126 3.7123051614777016 1.811009491326262 13.12558945587915" Properties=species:S:1:pos:R:3 unique_starting_index=3 config_type=initial n_minim_iter=18 stress="1.6432243691888694e-05 1.0685153268750261e-05 -3.7825702095959446e-05 1.0685153268750261e-05 -1.2513892658067226e-05 -6.093080992787203e-06 -3.7825702095959446e-05 -6.093080992787203e-06 1.97835069642499e-05" pbc="T T T"
Si       6.68507544       6.79342553       7.05169316
Si       6.71639822       3.78348470      13.24750941
Si       1.65459458       2.05542874       3.45830120
Si       5.40895148       2.20550117       2.65768478
Si       6.44412682       1.64162733       5.86241223
Si       7.61773007       2.13260634       7.56906313
Si       3.51699467       3.05663623       3.25674698
Si       7.33748842       3.37502294       2.11915481
Si       3.77464605       1.69776835       8.45282951
Si       5.77738265       1.15877854       8.01167522
Si       8.36250480       3.76862831       9.49889996
Si       2.85789681       2.40767208       5.17758899
Si       5.22639658       7.12594790      11.06063519
Si       4.98528250       2.32491910      10.07223470
Si       6.63044036       3.35318381      11.04316765
Si       4.83737945       0.66910079       1.02797474
16
Lattice="5.458418272905393 0.22799608578767686 0.4684099721378301 2.2955414511800645 5.178627149327372 0.6293554056382321 3.712433334464146 1.8110629621015142 13.125168803068306" Properties=species:S:1:pos:R:3 unique_starting_index=3 config_type=initial n_minim_iter=19 stress="8.473452766203552e-06 1.510069490676301e-05 -3.340243900672498e-05 1.510069490676301e-05 2.4381299086255825e-05 -7.218736983254576e-06 -3.340243900672498e-05 -7.218736983254576e-06 -1.2092746827323952e-05" pbc="T T T"
Si       6.68524895       6.79373068       7.05149178
Si       6.71661275       3.78372683      13.24710829
Si       1.65456987       2.05551013       3.45811813
Si       5.40896737       2.20572226       2.65762141
Si       6.44414902       1.64177959       5.86219946
Si       7.61770959       2.13267115       7.56885616
Si       3.51699196       3.05690450       3.25676589
Si       7.33768218       3.37534068       2.11910670
Si       3.77460711       1.69769639       8.45264466
Si       5.77741349       1.15876508       8.01133314
Si       8.36261473       3.76876582       9.49862480
Si       2.85791442       2.40786237       5.17751240
Si       5.22647853       7.12614003      11.06024103
Si       4.98537586       2.32469999      10.07202171
Si       6.63044271       3.35321245      11.04288740
Si       4.83757051       0.66933818       1.02798445
16
Lattice="5.458469032319287 0.22792203521448023 0.4684555655866733 2.2955038843259605 5.17853057801727 0.6293319326849502 3.7125586986657324 1.8108847524645257 13.125188410637257" Properties=species:S:1:pos:R:3 unique_starting_index=3 config_type=initial n_minim_iter=20 stress="6.335660520937612e-06 1.7963550912955178e-06 -1.917351463662896e-05 1.7963550912955178e-06 9.779835119598072e-06 -1.0714662374472668e-05 -1.917351463662896e-05 -1.0714662374472668e-05 -6.201305037755775e-06" pbc="T T T"
Si       6.68525650       6.79355198       7.05152806
Si       6.71681805       3.78354786      13.24714152
Si       1.65461949       2.05548419       3.45808064
Si       5.40904437       2.20571832       2.65766168
Si       6.44420315       1.64163367       5.86223274
Si       7.61783161       2.13242664       7.56890059
Si       3.51695203       3.05684076       3.25683434
Si       7.33778996       3.37530750       2.11907269
Si       3.77465620       1.69748646       8.45265368
Si       5.77747283       1.15851620       8.01132519
Si       8.36270329       3.76849002       9.49868935
Si       2.85797845       2.40784187       5.17760184
Si       5.22647796       7.12586921      11.06020169
Si       4.98543328       2.32428951      10.07208397
Si       6.63052460       3.35291745      11.04290585
Si       4.83774939       0.66936129       1.02798839
16
Lattice="5.458512818887112 0.2278548010228373 0.468515970847059 2.2954655859313475 5.178378161972197 0.6294055504929541 3.712705652835274 1.8109192983651505 13.12523854817403" Properties=species:S:1:pos:R:3 unique_starting_index=3 config_type=initial n_minim_iter=21 stress="-1.342957005109567e-05 -1.1058899564479321e-05 2.2583687944033158e-05 -1.1058899564479321e-05 -2.533765078736697e-05 -9.322686779941561e-06 2.2583687944033158e-05 -9.322686779941561e-06 -5.02624228685684e-06" pbc="T T T"
Si       6.68525437       6.79346512       7.05164981
Si       6.71714845       3.78361966      13.24724893
Si       1.65470596       2.05563075       3.45804798
Si       5.40916331       2.20592992       2.65780182
Si       6.44421785       1.64159748       5.86235579
Si       7.61788472       2.13212406       7.56897835
Si       3.51706312       3.05685979       3.25696816
Si       7.33783524       3.37531041       2.11916884
Si       3.77470958       1.69740501       8.45267613
Si       5.77752112       1.15831370       8.01132123
Si       8.36273704       3.76829276       9.49879224
Si       2.85798491       2.40796910       5.17774191
Si       5.22640627       7.12552591      11.06037359
Si       4.98552063       2.32380805      10.07226637
Si       6.63057584       3.35272459      11.04292416
Si       4.83805045       0.66948975       1.02792356
