14
Lattice="9.510770987384118 0.2581107580751001 2.8165308729661556 0.07657822446295537 7.818269738285417 -0.40904599710418776 -1.7130053800402034 -0.32994991104165294 5.472413593188062" Properties=species:S:1:pos:R:3 unique_starting_index=20 config_type=initial n_minim_iter=1 energy=-2277.95021560079 free_energy=-2277.95021560079 pbc="T T T"
Si       5.84041209       4.89927102       6.95808555
Si       7.30417383       3.01614397       2.47536665
Si       2.03393174       2.84715957       0.92181292
Si       0.57017000       4.73028662       5.40453182
Si       7.27496599       5.03778157       5.39840776
Si       7.56082874       2.89379266       4.57807976
Si       0.59937784       2.70864902       2.48149071
Si       0.31351509       4.85263793       3.30181871
Si       1.98588220       4.69067214       1.99764925
Si       1.23216197       2.91545206       4.51177585
Si       5.88846163       3.05575845       5.88224922
Si       6.64218186       4.83097852       3.36812262
Si       4.64648091       4.84262343       1.86313320
Si       3.22786292       2.90380715       6.01676527
14
Lattice="9.517795916291476 0.2563978938211187 2.8206083292543447 0.07521147550813763 7.814942482208467 -0.4092817156132816 -1.7172759554670693 -0.32868333352908075 5.490568726402041" Properties=species:S:1:pos:R:3 unique_starting_index=20 config_type=initial n_minim_iter=2 stress="0.003629464802625812 0.002104977027522716 -0.005104586716225032 0.002104977027522716 0.006599563849094185 -0.003687659512884149 -0.005104586716225032 -0.003687659512884149 0.013239463421292303" pbc="T T T"
Si       5.84072127       4.89682317       6.97817584
Si       7.30874807       3.01364419       2.47983927
Si       2.03501017       2.84583387       0.92371950
Si       0.56698336       4.72901286       5.42205607
Si       7.27770445       5.03486270       5.41221089
Si       7.56477830       2.89169738       4.58925954
Si       0.59802699       2.70779434       2.48968445
Si       0.31095313       4.85095966       3.31263580
Si       1.98588576       4.68840050       2.00377848
Si       1.23025615       2.91461175       4.52602222
Si       5.88984568       3.05425654       5.89811686
Si       6.64547529       4.82804529       3.37587313
Si       4.64865453       4.83998641       1.86755322
Si       3.22707690       2.90267064       6.03434212
14
Lattice="9.526578069254105 0.24397257928274366 2.84101817796278 0.05912242512042177 7.771128878125509 -0.3881537631742871 -1.7085019711063345 -0.3083825030770168 5.494850508340469" Properties=species:S:1:pos:R:3 unique_starting_index=20 config_type=initial n_minim_iter=3 stress="0.0018229797558461831 0.0013449216849476277 0.0008263874001577186 0.0013449216849476277 -0.0009301010836386596 -0.0016022128824542269 0.0008263874001577186 -0.0016022128824542269 0.007788872340163145" pbc="T T T"
Si       5.84308384       4.87630957       7.01439969
Si       7.31026698       2.98971650       2.50288509
Si       2.03411468       2.83040939       0.93331523
Si       0.56693154       4.71700245       5.44482983
Si       7.27969805       5.00749987       5.44426036
Si       7.57063657       2.87421867       4.61684110
Si       0.59750048       2.69921909       2.50345457
Si       0.30656196       4.83250029       3.33087383
Si       1.98240650       4.66325459       2.02276438
Si       1.23117080       2.90879449       4.54475404
Si       5.89479202       3.04346437       5.92495055
Si       6.64602773       4.79792447       3.40296088
Si       4.64430689       4.81025213       1.89297095
Si       3.23289163       2.89646682       6.05474398
14
Lattice="9.524115774600409 0.237145949057416 2.829906241861766 0.05136946091397509 7.769871896212798 -0.3792614743802889 -1.7140812215239363 -0.3004138407114809 5.493667292259245" Properties=species:S:1:pos:R:3 unique_starting_index=20 config_type=initial n_minim_iter=4 stress="0.004026620066438098 -7.498204735827653e-05 -0.0019097921598650932 -7.498204735827653e-05 0.0017185361191474787 0.0010697698757025612 -0.0019097921598650932 0.0010697698757025612 0.004603324199166457" pbc="T T T"
Si       5.83048158       4.87713671       7.01088252
Si       7.30513936       2.98406581       2.49750328
Si       2.03092244       2.82946729       0.93342954
Si       0.55626465       4.72253819       5.44680878
Si       7.26857781       5.00526218       5.43844353
Si       7.56335160       2.87143890       4.60967108
Si       0.59282621       2.70134182       2.50586853
Si       0.29805242       4.83516511       3.33464098
Si       1.97644171       4.66235355       2.02508921
Si       1.22312012       2.91222265       4.54435921
Si       5.88496230       3.04425046       5.91922285
Si       6.63828389       4.79438136       3.39995285
Si       4.63758247       4.80741234       1.89376225
Si       3.22382154       2.89919166       6.05054981
14
Lattice="9.496566491192656 0.22401187631495448 2.823261719608987 0.04082110900221335 7.7569662537006945 -0.37870172157470955 -1.7131746611486383 -0.29706960822605033 5.495683535889732" Properties=species:S:1:pos:R:3 unique_starting_index=20 config_type=initial n_minim_iter=5 stress="0.0009232857461681063 -0.00010945369256490255 -0.0033530482802145473 -0.00010945369256490255 -0.0017090271126226192 -0.0005393392787164934 -0.0033530482802145473 -0.0005393392787164934 0.00296179118098004" pbc="T T T"
Si       5.80247118       4.86087332       7.00779437
Si       7.27969903       2.96832548       2.49374512
Si       2.02174176       2.82303520       0.93244916
Si       0.54451391       4.71558304       5.44649841
Si       7.23592051       4.98701890       5.43131689
Si       7.53539849       2.85754426       4.60482877
Si       0.58829243       2.69688962       2.50892664
Si       0.28881444       4.82636426       3.33541476
Si       1.96540270       4.65025241       2.02531356
Si       1.21185394       2.90669253       4.54328622
Si       5.85881024       3.03365611       5.91492997
Si       6.61235900       4.77721599       3.39695731
Si       4.61721301       4.79423661       1.89422599
Si       3.20699993       2.88967192       6.04601755
14
Lattice="9.491187349742479 0.2188739406794539 2.834869709539283 0.03456383239386844 7.764015229517884 -0.3743125579974714 -1.7057012109407474 -0.2929545064159986 5.4964976778881605" Properties=species:S:1:pos:R:3 unique_starting_index=20 config_type=initial n_minim_iter=6 stress="-0.0009609975847645983 -0.001550111540904357 -0.0010269813371405654 -0.001550111540904357 0.004178508159351708 0.0035141369702668445 -0.0010269813371405654 0.0035141369702668445 0.00476695803255597" pbc="T T T"
Si       5.80078982       4.86501893       7.02007132
Si       7.27365636       2.96627096       2.50454028
Si       2.01926015       2.82491574       0.93698351
Si       0.54639361       4.72366371       5.45251455
Si       7.22952720       4.98918958       5.44274645
Si       7.53099560       2.85780319       4.61691524
Si       0.59052277       2.70074509       2.51430838
Si       0.28905437       4.83213147       3.34013959
Si       1.96420803       4.65328805       2.03159554
Si       1.21316608       2.91160715       4.54798770
Si       5.85584194       3.03664661       5.92545929
Si       6.60688389       4.77832752       3.40906713
Si       4.61157114       4.79687250       1.90526312
Si       3.20847883       2.89306217       6.05179171
14
Lattice="9.517618773763104 0.2109689515146488 2.8486187171687023 0.030266963124729016 7.763151575058862 -0.3829450870163378 -1.7006015502522578 -0.2983390101624148 5.491335095950587" Properties=species:S:1:pos:R:3 unique_starting_index=20 config_type=initial n_minim_iter=7 stress="0.0008806222917247289 -0.0016542810980160842 -0.0010123276838598565 -0.0016542810980160842 0.0015987407639021657 0.0012904380179276302 -0.0010123276838598565 0.0012904380179276302 -0.0017628171216198484" pbc="T T T"
Si       5.82206872       4.85337605       7.01971893
Si       7.29262630       2.95719220       2.51115715
Si       2.02521547       2.82240546       0.93728979
Si       0.55465788       4.71858931       5.44585158
Si       7.24743803       4.97796299       5.44108174
Si       7.55310887       2.84951326       4.62343063
Si       0.59984616       2.69781853       2.51592699
Si       0.29417532       4.82626826       3.33357809
Si       1.97543213       4.64685470       2.02846219
Si       1.22179424       2.90707562       4.54304336
Si       5.87185206       3.02892682       5.92854654
Si       6.62548995       4.76870590       3.41396537
Si       4.62321175       4.79051508       1.91074720
Si       3.22407244       2.88526644       6.04626153
14
Lattice="9.507784535762946 0.2523550126066834 2.8886310806500344 0.05672930867007055 7.758916161690571 -0.3631110062178963 -1.6769730687506657 -0.29039261399888006 5.489694372078055" Properties=species:S:1:pos:R:3 unique_starting_index=20 config_type=initial n_minim_iter=8 stress="-0.007098562324822629 -0.00047991799958791646 0.005189573915755218 -0.00047991799958791646 -0.0006635125541645114 -0.0015450607584690504 0.005189573915755218 -0.0015450607584690504 -0.025538022611868775" pbc="T T T"
Si       5.84769620       4.89515349       7.06295984
Si       7.29506383       2.97997517       2.55056689
Si       2.03984458       2.82572507       0.95225461
Si       0.59247694       4.74090339       5.46464756
Si       7.25061084       5.01391862       5.47159559
Si       7.55380137       2.89236167       4.66067991
Si       0.63692994       2.70695994       2.54361886
Si       0.33373941       4.82851689       3.35453453
Si       2.01694499       4.65295950       2.05632543
Si       1.25023891       2.93122594       4.55991985
Si       5.87059578       3.06791906       5.95888902
Si       6.63730187       4.78965262       3.45529459
Si       4.64040907       4.79346207       1.95366893
Si       3.24713171       2.92741649       6.06154552
14
Lattice="9.482884086921615 0.3050441998838923 2.9066853104290025 0.08612769532032191 7.713035844041482 -0.3152197092054413 -1.6688090715740298 -0.2607358084151643 5.503459310692723" Properties=species:S:1:pos:R:3 unique_starting_index=20 config_type=initial n_minim_iter=9 stress="-0.007874693171653586 0.001835025902471641 0.007659849649482578 0.001835025902471641 -0.005877693041543019 -0.0012516653376882761 0.007659849649482578 -0.0012516653376882761 -0.012561435958691337" pbc="T T T"
Si       5.85216493       4.93676910       7.11499448
Si       7.28721394       3.00018950       2.57955272
Si       2.04803778       2.82057514       0.97993043
Si       0.61298878       4.75715474       5.51537219
Si       7.23724958       5.04699162       5.51829267
Si       7.53458329       2.93828721       4.69451539
Si       0.66295313       2.71035261       2.57663224
Si       0.36561942       4.81905703       3.40040953
Si       2.04971071       4.64214301       2.09272447
Si       1.27019623       2.95912967       4.59600518
Si       5.85049200       3.11520123       6.00220044
Si       6.63000648       4.79821456       3.49891973
Si       4.64876677       4.78273596       2.00606729
Si       3.25143594       2.97460828       6.08885762
14
Lattice="9.422159101275348 0.36732241162443385 2.891451554328087 0.12951836405992376 7.708549682655812 -0.28789241538394617 -1.6747160478559175 -0.2498743329505032 5.5224488265619485" Properties=species:S:1:pos:R:3 unique_starting_index=20 config_type=initial n_minim_iter=10 stress="-0.0013613213546742455 0.005635178007697938 0.0014709079586249273 0.005635178007697938 -0.009166088396889508 -0.0003094028914880992 0.0014709079586249273 -0.0003094028914880992 0.009823975736742667" pbc="T T T"
Si       5.81280770       4.99290063       7.13598369
Si       7.25783369       3.03268990       2.57024891
Si       2.06415372       2.83309713       0.99002427
Si       0.61912772       4.79330786       5.55575905
Si       7.18854603       5.10891417       5.51584118
Si       7.45985481       3.00072227       4.69528107
Si       0.68841538       2.71708359       2.61016678
Si       0.41710660       4.82527549       3.43072690
Si       2.09002104       4.64408875       2.10931407
Si       1.29170103       3.00544039       4.63512142
Si       5.78694038       3.18190901       6.01669390
Si       6.58526038       4.82055737       3.49088654
Si       4.64518058       4.78636127       2.04616651
Si       3.23178084       3.03963649       6.07984146
14
Lattice="9.385865960510092 0.30886909973197324 2.8932438645133356 0.07983584206091567 7.714953506643279 -0.2842176706879995 -1.6691224220691712 -0.23610059179346338 5.5347016403983815" Properties=species:S:1:pos:R:3 unique_starting_index=20 config_type=initial n_minim_iter=11 stress="-0.0013094354817761065 0.0006876221727666335 0.002641696049152539 0.0006876221727666335 -0.009263970089736052 -0.004104496355192742 0.002641696049152539 -0.004104496355192742 0.02230734939829755" pbc="T T T"
Si       5.74660715       4.96356766       7.14617733
Si       7.21730302       2.97352008       2.56637125
Si       2.04997223       2.82415435       0.99755050
Si       0.57927636       4.81420194       5.57735658
Si       7.10584149       5.07691096       5.51303639
Si       7.37790926       2.96250689       4.70063979
Si       0.69073789       2.71081105       2.63069145
Si       0.41867012       4.82521512       3.44308804
Si       2.08285106       4.62021032       2.11878528
Si       1.29323890       3.02412503       4.66380397
Si       5.71372832       3.16751169       6.02494255
Si       6.50334048       4.76359699       3.47992386
Si       4.59838065       4.73119777       2.07482372
Si       3.19819873       3.05652424       6.06890412
14
Lattice="9.400882694093928 0.23963236325312096 2.8164763308004868 -0.011507630322638442 7.7304276644503656 -0.15782362706978106 -1.7168675473073445 -0.1277442345683534 5.535817277029806" Properties=species:S:1:pos:R:3 unique_starting_index=20 config_type=initial n_minim_iter=12 stress="0.018338884557163312 -0.009516771497334903 -0.020144340714942303 -0.009516771497334903 0.03601850899229614 0.006152892917986407 -0.020144340714942303 0.006152892917986407 0.1107919533404382" pbc="T T T"
Si       5.61438014       5.03435450       7.15419589
Si       7.21434654       2.87611856       2.52674048
Si       2.05812737       2.80796130       1.04027409
Si       0.45816098       4.96619723       5.66772951
Si       6.90477266       5.12106052       5.45164688
Si       7.16108956       2.97195070       4.67338444
Si       0.76773486       2.72125527       2.74282310
Si       0.51141795       4.87036509       3.52108555
Si       2.18048435       4.57723167       2.21274325
Si       1.35788920       3.22571130       4.78357050
Si       5.49202317       3.26508413       5.98172674
Si       6.31461832       4.61660449       3.41089949
Si       4.54082178       4.57293777       2.24099224
Si       3.13168573       3.26937802       5.95347774
14
Lattice="9.40369684730005 0.24085398613052728 2.8148875439090113 -0.011963849890246677 7.728630379124537 -0.15242007705026633 -1.718272313665598 -0.1238017055546318 5.535257925464697" Properties=species:S:1:pos:R:3 unique_starting_index=20 config_type=initial n_minim_iter=13 stress="0.008018776670627545 -0.009950762600430164 -0.027517460325824625 -0.009950762600430164 0.03678191924163928 0.0057090413023342425 -0.027517460325824625 0.0057090413023342425 0.10775075386921978" pbc="T T T"
Si       5.61381329       5.03802766       7.15548449
Si       7.21685141       2.87500259       2.52647069
Si       2.05964739       2.80765500       1.04224090
Si       0.45660928       4.97068007       5.67125470
Si       6.90215259       5.12401567       5.45100860
Si       7.15722187       2.97465758       4.67371325
Si       0.77130809       2.72166699       2.74671679
Si       0.51623881       4.87102507       3.52401214
Si       2.18525955       4.57565717       2.21661384
Si       1.36121339       3.23205155       4.78720830
Si       5.48820113       3.27002549       5.98111155
Si       6.31224730       4.61363111       3.41051709
Si       4.54150200       4.56887563       2.24684109
Si       3.13195868       3.27680703       5.95088431
14
Lattice="9.953851115459692 0.32403993795189834 2.8698640889883724 -0.0017706585150190541 7.6141277908893406 0.061538647119414765 -1.7695868000580335 0.024985646073073797 5.457370153728805" Properties=species:S:1:pos:R:3 unique_starting_index=20 config_type=initial n_minim_iter=14 stress="0.021335202282704375 0.006292973778747911 -0.0356053535237495 0.006292973778747911 0.042004825173107024 0.017229004699863326 -0.0356053535237495 0.017229004699863326 0.10038102887065106" pbc="T T T"
Si       5.97398429       5.16529687       7.25112118
Si       7.66405252       2.87601709       2.62775857
Si       2.20850937       2.79785651       1.13765171
Si       0.51844114       5.08713628       5.76101432
Si       7.23909263       5.22823586       5.52932762
Si       7.43406851       3.08087919       4.76531933
Si       0.94340103       2.73491751       2.85944527
Si       0.74842515       4.88227418       3.62345356
Si       2.43867281       4.52625118       2.38967486
Si       1.57254860       3.41810138       4.87641017
Si       5.74382085       3.43690219       5.99909803
Si       6.60994505       4.54505200       3.51236272
Si       4.78522461       4.46841493       2.46021378
Si       3.39726904       3.49473845       5.92855911
14
Lattice="9.837192213308299 0.02989815765142106 2.7737876070464855 -0.21908384695979904 7.558686665252684 -0.005276772492078663 -1.78166591663757 0.026166779597067837 5.416786889631013" Properties=species:S:1:pos:R:3 unique_starting_index=20 config_type=initial n_minim_iter=15 stress="0.015914604750537534 -0.015218176648536256 -0.01856193272215789 -0.015218176648536256 0.03307759047618074 -0.004569315263059069 -0.01856193272215789 -0.004569315263059069 0.03392209158669779" pbc="T T T"
Si       5.73912840       4.90334684       7.10349325
Si       7.47176903       2.66757387       2.50278192
Si       2.09731405       2.71140476       1.08180448
Si       0.36467342       4.94717773       5.68251580
Si       6.97318012       4.93900073       5.36081951
Si       7.23587675       2.80369858       4.67129482
Si       0.86326233       2.67575087       2.82447821
Si       0.60056570       4.81105302       3.51400290
Si       2.27798973       4.42309559       2.31875553
Si       1.44217574       3.30224772       4.78033484
Si       5.55845272       3.19165601       5.86654219
Si       6.39426671       4.31250388       3.40496288
Si       4.55312960       4.29025004       2.34918649
Si       3.28331285       3.32450157       5.83611123
14
Lattice="9.818570889874602 -0.19013722528319446 2.800287430682489 -0.41427854515675655 7.441343073335265 0.049463655539665495 -1.750472870752907 0.11061602475410001 5.392306384970992" Properties=species:S:1:pos:R:3 unique_starting_index=20 config_type=initial n_minim_iter=16 stress="0.0045959661965959174 -0.012113808001863792 -0.026388468427976732 -0.012113808001863792 0.009631141587764094 0.0044776454839346004 -0.026388468427976732 0.0044776454839346004 -0.03871222128777093" pbc="T T T"
Si       5.61086605       4.73922439       7.13750170
Si       7.36945655       2.47457377       2.51766014
Si       2.04295342       2.62259748       1.10455577
Si       0.28436293       4.88724811       5.72439733
Si       6.76547223       4.72799947       5.34058013
Si       7.07527404       2.61603471       4.71001078
Si       0.88834724       2.63382240       2.90147734
Si       0.57854543       4.74578716       3.53204669
Si       2.25740715       4.29187403       2.37206725
Si       1.41236815       3.28802377       4.79925282
Si       5.39641232       3.06994785       5.86999022
Si       6.24145132       4.07379810       3.44280465
Si       4.37873328       4.07837427       2.41063403
Si       3.27508619       3.28344761       5.83142344
14
Lattice="9.875402380644303 -0.2606522162104331 2.861825291306422 -0.47674486920482256 7.425891953126974 0.0586828061197904 -1.719682974820946 0.13045066524700077 5.379780055913795" Properties=species:S:1:pos:R:3 unique_starting_index=20 config_type=initial n_minim_iter=17 stress="-0.03813211119863854 -0.004738147783400682 -0.021407612175048038 -0.004738147783400682 0.01559838385832688 -0.003795696300782159 -0.021407612175048038 -0.003795696300782159 -0.022580470604523315" pbc="T T T"
Si       5.63761065       4.69508547       7.18079984
Si       7.38511238       2.42196244       2.56729094
Si       2.04136388       2.60060493       1.11948831
Si       0.29386216       4.87372796       5.73299721
Si       6.75573975       4.67083482       5.36654660
Si       7.08100424       2.55617448       4.75496724
Si       0.92323478       2.62485558       2.93374155
Si       0.59797030       4.73951592       3.54532091
Si       2.28584457       4.25069547       2.39928294
Si       1.44986625       3.29056676       4.82265457
Si       5.39312997       3.04499493       5.90100522
Si       6.22910829       4.00512365       3.47763358
Si       4.36115239       4.01734162       2.45249801
Si       3.31782215       3.27834879       5.84779014
14
Lattice="10.119715737613019 -0.37343921541591485 2.980675756715382 -0.5880123345084558 7.357141125658195 0.11700963073317901 -1.6861534468768462 0.19698483107538398 5.356005426527767" Properties=species:S:1:pos:R:3 unique_starting_index=20 config_type=initial n_minim_iter=18 stress="0.0028299936276206185 -0.018663597218506894 -0.008311417705213205 -0.018663597218506894 0.01577359517628685 -0.008260071477167988 -0.008311417705213205 -0.008260071477167988 0.025313086984118386" pbc="T T T"
Si       5.77822901       4.62960422       7.28912885
Si       7.51984631       2.32456243       2.68613451
Si       2.06732095       2.55108252       1.16456197
Si       0.32570365       4.85612431       5.76755630
Si       6.84844649       4.56867458       5.45549367
Si       7.21008886       2.46010238       4.85109670
Si       0.99710346       2.61201216       2.99819715
Si       0.63546109       4.72058437       3.60259411
Si       2.34552477       4.16707067       2.47459733
Si       1.53936781       3.29964385       4.88391192
Si       5.50002518       3.01361608       5.97909349
Si       6.30618215       3.88104290       3.56977890
Si       4.43354241       3.90336112       2.55287560
Si       3.41200754       3.27732562       5.90081522
14
Lattice="10.046115795784662 -0.011210766856947354 3.2356944459850925 -0.35441168893485775 7.341674221546652 0.2960664724125067 -1.5476433983865823 0.27164658985903345 5.379267816600648" Properties=species:S:1:pos:R:3 unique_starting_index=20 config_type=initial n_minim_iter=19 stress="0.010976505007918119 -0.00848036109248619 0.011949648639820521 -0.00848036109248619 0.007444530588866568 0.008295489890888161 0.011949648639820521 0.008295489890888161 0.037704510435108675" pbc="T T T"
Si       6.01179962       4.96125197       7.63871889
Si       7.48816194       2.63991087       2.96877980
Si       2.13226109       2.64085807       1.27230984
Si       0.65589877       4.96219917       5.94224894
Si       6.99486494       4.87250524       5.76923304
Si       7.33531642       2.74194415       5.10072869
Si       1.14919577       2.72960481       3.14179570
Si       0.80874429       4.86016590       3.81030005
Si       2.48438658       4.25339934       2.63968793
Si       1.75133707       3.43459098       5.04387684
Si       5.65967413       3.34871070       6.27134081
Si       6.39272364       4.16751906       3.86715190
Si       4.60608798       4.07929360       2.72729114
Si       3.53797273       3.52281644       6.18373760
14
Lattice="10.105456203528835 0.08303062480153231 3.2372950015660624 -0.3020874554375733 7.3421490786607775 0.3823171637955282 -1.5554145780779849 0.3194502105571716 5.35710750817828" Properties=species:S:1:pos:R:3 unique_starting_index=20 config_type=initial n_minim_iter=20 stress="-0.013655179156736122 0.010786751650923807 0.04153783490722325 0.010786751650923807 -0.010698170804135232 0.017428660784372673 0.04153783490722325 0.017428660784372673 -0.01691304002759846" pbc="T T T"
Si       6.09100434       5.06778902       7.67838138
Si       7.53309122       2.73204722       2.98952763
Si       2.15694983       2.67684089       1.29833829
Si       0.71486295       5.01258270       5.98719204
Si       7.05654858       4.97683555       5.80058818
Si       7.37040766       2.82787479       5.12753079
Si       1.19140559       2.76779436       3.17613149
Si       0.87754651       4.91675512       3.84918888
Si       2.52955114       4.28083921       2.69028207
Si       1.82750319       3.50342760       5.06675337
Si       5.71840303       3.46379071       6.28643761
Si       6.42045098       4.24120231       3.90996631
Si       4.65174453       4.11869209       2.74171735
Si       3.59620964       3.62593783       6.23500233
14
Lattice="10.146926971460818 -0.015958084154396857 3.0904485385508136 -0.36834141620385247 7.356369959057173 0.35241441102466803 -1.6360122060429567 0.31186051501969814 5.331019262485925" Properties=species:S:1:pos:R:3 unique_starting_index=20 config_type=initial n_minim_iter=21 stress="-0.013479950073081582 -0.014271858012468995 -0.01474621690493013 -0.014271858012468995 -0.009756014782735628 0.013000857144927998 -0.01474621690493013 0.013000857144927998 -0.03410941150409612" pbc="T T T"
Si       6.02036228       4.98458590       7.52348308
Si       7.53995854       2.67628355       2.85470164
Si       2.12221107       2.66768649       1.25039913
Si       0.60261481       4.97598884       5.91918057
Si       7.01218003       4.90357606       5.64375568
Si       7.33019630       2.74025196       4.99599376
Si       1.13039332       2.74869633       3.13012654
Si       0.81237705       4.91202043       3.77788845
Si       2.47841282       4.25594045       2.63152733
Si       1.77316393       3.47098023       4.97470357
Si       5.66416053       3.39633194       6.14235488
Si       6.36940942       4.18129216       3.79917865
Si       4.59052037       4.07875872       2.64662422
Si       3.55205297       3.57351367       6.12725800
