20
Lattice="6.986929669201591 1.5361644017319292e-48 1.7675596145051003e-32 -9.344612105229566e-49 6.986929669201591 -2.378453232474618e-16 -1.5885637733197903e-32 2.1375938953563529e-16 6.279382753568134" Properties=species:S:1:pos:R:3 unique_starting_index=96 config_type=initial n_minim_iter=1 energy=-3252.5487861610486 free_energy=-3252.5487861610486 pbc="T T T"
Si       5.49595535       4.21412007       1.40514997
Si       1.48912013       2.77339372       1.40514997
Si       4.21290091       1.49033929       4.54484135
Si       2.77217457       5.49717450       4.54484135
Si       4.98258497       0.72065523       1.40514997
Si       2.00249051       6.26685856       1.40514997
Si       6.26563940       4.98380412       4.54484135
Si       0.71943608       2.00370967       4.54484135
Si       2.43877901       0.74391095       5.94246870
Si       4.54629647       6.24360284       5.94246870
Si       0.74269180       4.54751563       2.80277732
Si       6.24238368       2.43999817       2.80277732
Si       1.05283164       4.23737579       5.94246870
Si       5.93224384       2.75013800       5.94246870
Si       2.74891885       1.05405079       2.80277732
Si       4.23615663       5.93346300       2.80277732
Si      -0.00092710       0.00029206       5.99425508
Si      -0.00092710       6.98722173       2.85456371
Si       3.49253774       3.49375690       5.99425508
Si       3.49253774       3.49375690       2.85456371
20
Lattice="6.94908481316776 1.5352029385162742e-48 1.7533956776295387e-32 -9.618982831719532e-49 6.94908481316776 -2.2020154424534455e-16 -1.530797217141648e-32 2.2035548636259313e-16 6.034864173677588" Properties=species:S:1:pos:R:3 unique_starting_index=96 config_type=initial n_minim_iter=2 stress="-0.019899900778110605 -2.8020132361085155e-16 8.164810440693638e-17 -2.8020132361085155e-16 -0.019899900778110755 1.2108283191228482e-16 8.164810440693638e-17 1.2108283191228482e-16 -0.013077056414350644" pbc="T T T"
Si       5.39892136       4.25157261       1.37727048
Si       1.54831931       2.69809316       1.37727048
Si       4.25036006       1.54953186       4.39470257
Si       2.69688061       5.40013391       4.39470257
Si       5.02286171       0.77703020       1.37727048
Si       1.92437895       6.17263557       1.37727048
Si       6.17142301       5.02407427       4.39470257
Si       0.77581765       1.92559150       4.39470257
Si       2.42920282       0.77206963       5.68194158
Si       4.51803785       6.17759614       5.68194158
Si       0.77085708       4.51925040       2.66450950
Si       6.17638359       2.43041537       2.66450950
Si       1.04349544       4.24661204       5.68194158
Si       5.90374522       2.70305373       5.68194158
Si       2.70184118       1.04470800       2.66450950
Si       4.24539949       5.90495778       2.66450950
Si      -0.00092207       0.00029048       5.76542139
Si      -0.00092207       6.94937529       2.74798930
Si       3.47362033       3.47483289       5.76542139
Si       3.47362033       3.47483289       2.74798930
20
Lattice="7.095161868408088 1.6291452710011612e-48 1.8037171438260633e-32 -9.95763796655796e-49 7.0951618684080895 -1.9693377196552695e-16 -1.517218694316273e-32 2.457271922167756e-16 6.029622001130117" Properties=species:S:1:pos:R:3 unique_starting_index=96 config_type=initial n_minim_iter=3 stress="0.0010022040938452118 -3.29183483387509e-17 1.769977403176288e-16 -3.29183483387509e-17 0.0010022040938450244 2.0580468331868863e-16 1.769977403176288e-16 2.0580468331868863e-16 0.002509962550497182" pbc="T T T"
Si       5.48274369       4.36665844       1.38592587
Si       1.61053526       2.72909660       1.38592587
Si       4.36542039       1.61177330       4.40073687
Si       2.72785856       5.48398174       4.40073687
Si       5.15811619       0.81907750       1.38592587
Si       1.93516276       6.27667754       1.38592587
Si       6.27543949       5.15935424       4.40073687
Si       0.81783946       1.93640080       4.40073687
Si       2.48262589       0.80108912       5.66547323
Si       4.61065306       6.29466592       5.66547323
Si       0.79985108       4.61189111       2.65066223
Si       6.29342788       2.48386393       2.65066223
Si       1.06307213       4.34867005       5.66547323
Si       6.03020682       2.74708499       5.66547323
Si       2.74584694       1.06431017       2.65066223
Si       4.34743201       6.03144487       2.65066223
Si      -0.00094146       0.00029659       5.76377526
Si      -0.00094146       7.09545845       2.74896426
Si       3.54663948       3.54787752       5.76377526
Si       3.54663948       3.54787752       2.74896426
20
Lattice="7.1647506298534775 1.714373528981481e-48 1.8620328148731175e-32 -1.0339895158510131e-48 7.164750629853475 -1.6326513722025264e-16 -1.4219783894947197e-32 2.7261274751211617e-16 5.804726473620733" Properties=species:S:1:pos:R:3 unique_starting_index=96 config_type=initial n_minim_iter=4 stress="-0.009258099147229032 -2.242966578577902e-16 -1.7724651985436726e-17 -2.242966578577902e-16 -0.009258099147229937 1.3818847473977287e-16 -1.7724651985436726e-17 1.3818847473977287e-16 -0.020301157626180753" pbc="T T T"
Si       5.48220936       4.42874884       1.33250348
Si       1.68063988       2.73660079       1.33250348
Si       4.42749865       1.68189007       4.23486672
Si       2.73535060       5.48345955       4.23486672
Si       5.26301520       0.84637352       1.33250348
Si       1.89983405       6.31897610       1.33250348
Si       6.31772591       5.26426538       4.23486672
Si       0.84512333       1.90108424       4.23486672
Si       2.53216246       0.81627732       5.44909932
Si       4.63068679       6.34907230       5.44909932
Si       0.81502713       4.63193697       2.54673609
Si       6.34782212       2.53341265       2.54673609
Si       1.04831147       4.39865263       5.44909932
Si       6.11453778       2.76669699       5.44909932
Si       2.76544680       1.04956166       2.54673609
Si       4.39740245       6.11578796       2.54673609
Si      -0.00095069       0.00029950       5.56237554
Si      -0.00095069       7.16505013       2.66001230
Si       3.58142462       3.58267481       5.56237554
Si       3.58142462       3.58267481       2.66001230
20
Lattice="7.201429975053673 1.7755916606262308e-48 1.9462078768467315e-32 -1.332642546517208e-48 7.201429975053672 -3.7799713946593926e-17 -1.392931840878871e-32 3.886770771110158e-16 5.948011013817113" Properties=species:S:1:pos:R:3 unique_starting_index=96 config_type=initial n_minim_iter=5 stress="0.0027999775364118394 -8.997896438004313e-18 1.7323386075775242e-16 -8.997896438004313e-18 0.00279997753641101 3.5041037614634533e-17 1.7323386075775242e-16 3.5041037614634533e-17 -0.0025445693995687496" pbc="T T T"
Si       5.43591980       4.44171943       1.33836160
Si       1.76359906       2.76031260       1.33836160
Si       4.44046285       1.76485564       4.31236711
Si       2.75905601       5.43717639       4.31236711
Si       5.36431404       0.84100445       1.33836160
Si       1.83520482       6.36102759       1.33836160
Si       6.35977100       5.36557063       4.31236711
Si       0.83974786       1.83646140       4.31236711
Si       2.61018950       0.81147173       5.59512796
Si       4.58932936       6.39056030       5.59512796
Si       0.81021514       4.59058594       2.62112245
Si       6.38930372       2.61144609       2.62112245
Si       0.98861437       4.41218671       5.59512796
Si       6.21090449       2.78984532       5.59512796
Si       2.78858873       0.98987096       2.62112245
Si       4.41093013       6.21216108       2.62112245
Si      -0.00095556       0.00030103       5.73070008
Si      -0.00095556       7.20173100       2.75669457
Si       3.59975943       3.60101602       5.73070008
Si       3.59975943       3.60101602       2.75669457
20
Lattice="7.187030931368135 1.6734308327890704e-48 1.972222781335789e-32 -9.73746264288295e-49 7.187030931368134 -2.028112193845699e-16 -1.380567750678529e-32 2.403111650046204e-16 5.9984101213867005" Properties=species:S:1:pos:R:3 unique_starting_index=96 config_type=initial n_minim_iter=6 stress="0.0005009002755794842 6.84397498077889e-17 -4.523088938250864e-17 6.84397498077889e-17 0.0005009002755790255 6.550164168615139e-17 -4.523088938250864e-17 6.550164168615139e-17 -0.0019050210700113231" pbc="T T T"
Si       5.38781483       4.42805117       1.33406510
Si       1.79730881       2.75958062       1.33406510
Si       4.42679709       1.79856288       4.33327016
Si       2.75832654       5.38906890       4.33327016
Si       5.39082428       0.83453570       1.33406510
Si       1.79429936       6.35309608       1.33406510
Si       6.35184201       5.39207835       4.33327016
Si       0.83328163       1.79555343       4.33327016
Si       2.63575248       0.80684406       5.64930399
Si       4.54937115       6.38078773       5.64930399
Si       0.80558998       4.55062523       2.65009893
Si       6.37953365       2.63700656       2.65009893
Si       0.95585569       4.40035952       5.64930399
Si       6.22926795       2.78727226       5.64930399
Si       2.78601819       0.95710976       2.65009893
Si       4.39910545       6.23052202       2.65009893
Si      -0.00095365       0.00030043       5.79699747
Si      -0.00095365       7.18733136       2.79779241
Si       3.59256182       3.59381589       5.79699747
Si       3.59256182       3.59381589       2.79779241
20
Lattice="7.156441352169677 1.5449396497050282e-48 1.9882601198929028e-32 -1.1550743980420738e-48 7.156441352169676 -1.8091400231337213e-16 -1.3763365845152625e-32 2.599934594172988e-16 6.056819973288874" Properties=species:S:1:pos:R:3 unique_starting_index=96 config_type=initial n_minim_iter=7 stress="-8.029455625855303e-05 -9.001384655978197e-17 7.824710421583057e-17 -9.001384655978197e-17 -8.029455625891952e-05 2.565196637841721e-16 7.824710421583057e-17 2.565196637841721e-16 0.002079544357355412" pbc="T T T"
Si       5.36374795       4.40094843       1.33653382
Si       1.79079422       2.75609122       1.33653382
Si       4.39969970       1.79204296       4.36494381
Si       2.75484248       5.36499669       4.36494381
Si       5.36901490       0.82272776       1.33653382
Si       1.78552728       6.33431189       1.33653382
Si       6.33306316       5.37026364       4.36494381
Si       0.82147902       1.78677601       4.36494381
Si       2.62990196       0.80262442       5.71146650
Si       4.52464021       6.35441523       5.71146650
Si       0.80137568       4.52588895       2.68305651
Si       6.35316649       2.63115070       2.68305651
Si       0.94641954       4.38084510       5.71146650
Si       6.20812264       2.77619455       5.71146650
Si       2.77494581       0.94766828       2.68305651
Si       4.37959636       6.20937137       2.68305651
Si      -0.00094959       0.00029915       5.86018548
Si      -0.00094959       7.15674050       2.83177550
Si       3.57727109       3.57851982       5.86018548
Si       3.57727109       3.57851982       2.83177550
20
Lattice="7.153788307491371 1.5443669077912387e-48 2.0107182863714624e-32 -1.161242264931599e-48 7.153788307491369 -1.8071697971185062e-16 -1.3537433392092826e-32 2.5989707432449114e-16 6.050223853514694" Properties=species:S:1:pos:R:3 unique_starting_index=96 config_type=initial n_minim_iter=8 stress="-0.001446500407868307 -9.878436681835947e-17 1.4706140271629867e-16 -9.878436681835947e-17 -0.0014465004078687658 1.4744549616574057e-16 1.4706140271629867e-16 1.4744549616574057e-16 -0.0010958421492194528" pbc="T T T"
Si       5.35877158       4.38980864       1.31235571
Si       1.79311825       2.76457774       1.31235571
Si       4.38856037       1.79436653       4.33746764
Si       2.76332947       5.36001985       4.33746764
Si       5.37001241       0.81291449       1.31235571
Si       1.78187743       6.34147190       1.31235571
Si       6.34022362       5.37126068       4.33746764
Si       0.81166621       1.78312570       4.33746764
Si       2.63245506       0.81169427       5.72026471
Si       4.51943478       6.34269211       5.72026471
Si       0.81044599       4.52068305       2.69515278
Si       6.34144384       2.63370333       2.69515278
Si       0.94254062       4.38858842       5.72026471
Si       6.20934921       2.76579796       5.72026471
Si       2.76454969       0.94378890       2.69515278
Si       4.38734015       6.21059748       2.69515278
Si      -0.00094924       0.00029904       5.86921220
Si      -0.00094924       7.15408734       2.84410027
Si       3.57594492       3.57719319       5.86921220
Si       3.57594492       3.57719319       2.84410027
20
Lattice="7.155825609063207 1.3403110860854248e-48 2.0356820927777884e-32 -1.0261602461173243e-48 7.155825609063207 -3.021976693944288e-16 -1.336842994959691e-32 1.5142427004682836e-16 6.068042249363257" Properties=species:S:1:pos:R:3 unique_starting_index=96 config_type=initial n_minim_iter=9 stress="0.005197166657681722 -3.319386716805163e-16 -3.860033864300863e-17 -3.319386716805163e-16 0.005197166657681264 1.1641995444630783e-16 -3.860033864300863e-17 1.1641995444630783e-16 0.006523728957473292" pbc="T T T"
Si       5.36724332       4.40076872       1.31182589
Si       1.78668327       2.75565513       1.31182589
Si       4.39952009       1.78793190       4.34584701
Si       2.75440650       5.36849195       4.34584701
Si       5.36459608       0.82285592       1.31182589
Si       1.78933052       6.33356794       1.31182589
Si       6.33231931       5.36584471       4.34584701
Si       0.82160729       1.79057915       4.34584701
Si       2.61637829       0.83771188       5.74139543
Si       4.53754831       6.31871197       5.74139543
Si       0.83646325       4.53879694       2.70737431
Si       6.31746334       2.61762692       2.70737431
Si       0.95963550       4.41562469       5.74139543
Si       6.19429109       2.74079917       5.74139543
Si       2.73955054       0.96088413       2.70737431
Si       4.41437606       6.19553972       2.70737431
Si      -0.00094951       0.00029912       5.88671897
Si      -0.00094951       7.15612473       2.85269784
Si       3.57696330       3.57821193       5.88671897
Si       3.57696330       3.57821193       2.85269784
20
Lattice="7.147703734386257 1.1296932070450316e-48 2.0445481394958836e-32 -8.871177887187818e-49 7.147703734386255 -4.231167171142262e-16 -1.3195270965033013e-32 4.138379829614181e-17 6.041350130433349" Properties=species:S:1:pos:R:3 unique_starting_index=96 config_type=initial n_minim_iter=10 stress="0.0007287649556715201 -2.221161306277183e-16 -2.0580662245283137e-16 -2.221161306277183e-16 0.0007287649556711517 5.394379801324992e-17 -2.0580662245283137e-16 5.394379801324992e-17 0.0005233246449323346" pbc="T T T"
Si       5.35556206       4.40072027       1.30355105
Si       1.79024482       2.74758103       1.30355105
Si       4.39947306       1.79149203       4.32422612
Si       2.74633382       5.35680927       4.32422612
Si       5.36409668       0.82686840       1.30355105
Si       1.78171019       6.32143290       1.30355105
Si       6.32018569       5.36534390       4.32422612
Si       0.82562119       1.78295740       4.32422612
Si       2.61470169       0.84668286       5.71797094
Si       4.53110519       6.30161844       5.71797094
Si       0.84543565       4.53235240       2.69729587
Si       6.30037122       2.61594890       2.69729587
Si       0.95725332       4.42053473       5.71797094
Si       6.18855355       2.72776657       5.71797094
Si       2.72651936       0.95850053       2.69729587
Si       4.41928752       6.18980077       2.69729587
Si      -0.00094843       0.00029878       5.86217166
Si      -0.00094843       7.14800252       2.84149659
Si       3.57290344       3.57415065       5.86217166
Si       3.57290344       3.57415065       2.84149659
20
Lattice="7.131374985092299 9.060819437820588e-49 2.0631885644097375e-32 -8.100891181242546e-49 7.1313749850922985 -5.271657122403272e-16 -1.2901693014642849e-32 -5.417425417290161e-17 6.009206480848851" Properties=species:S:1:pos:R:3 unique_starting_index=96 config_type=initial n_minim_iter=11 stress="-0.006194991372623191 -1.8164211938404635e-16 1.942010029362663e-16 -1.8164211938404635e-16 -0.006194991372623656 -5.887076153025927e-17 1.942010029362663e-16 -5.887076153025927e-17 -0.007338436118143653" pbc="T T T"
Si       5.32952803       4.40330487       1.28402360
Si       1.79995443       2.72866632       1.28402360
Si       4.40206050       1.80119879       4.28862684
Si       2.72742196       5.33077239       4.28862684
Si       5.36564192       0.83761737       1.28402360
Si       1.76384054       6.29435381       1.28402360
Si       6.29310945       5.36688628       4.28862684
Si       0.83637301       1.76508490       4.28862684
Si       2.62223541       0.88281168       5.70083145
Si       4.50724705       6.24915950       5.70083145
Si       0.88156732       4.50849142       2.69622821
Si       6.24791514       2.62347977       2.69622821
Si       0.94155956       4.44849918       5.70083145
Si       6.18792290       2.68347201       5.70083145
Si       2.68222765       0.94280392       2.69622821
Si       4.44725481       6.18916726       2.69622821
Si      -0.00094626       0.00029810       5.82959771
Si      -0.00094626       7.13167309       2.82499447
Si       3.56474123       3.56598559       5.82959771
Si       3.56474123       3.56598559       2.82499447
20
Lattice="7.166759132984193 1.0839994701765495e-48 2.1008610494678255e-32 -1.023284956002862e-48 7.166759132984192 -4.075201881512887e-16 -1.268454767372215e-32 5.471375444014086e-17 6.027436928242782" Properties=species:S:1:pos:R:3 unique_starting_index=96 config_type=initial n_minim_iter=12 stress="0.006192402510110348 -6.840636049807112e-17 -5.0462535002484453e-17 -6.840636049807112e-17 0.006192402510110072 1.8914520385867908e-17 -5.0462535002484453e-17 1.8914520385867908e-17 0.00552230189733728" pbc="T T T"
Si       5.36631340       4.42752071       1.27341366
Si       1.79854382       2.73983758       1.27341366
Si       4.42627017       1.79979435       4.28713212
Si       2.73858704       5.36756394       4.28713212
Si       5.38192338       0.84414114       1.27341366
Si       1.78293383       6.32321715       1.27341366
Si       6.32196661       5.38317392       4.28713212
Si       0.84289061       1.78418437       4.28713212
Si       2.65845773       0.92172227       5.74384341
Si       4.50639949       6.24563602       5.74384341
Si       0.92047174       4.50765003       2.73012495
Si       6.24438548       2.65970827       2.73012495
Si       0.92301992       4.50510184       5.74384341
Si       6.24183730       2.66225645       5.74384341
Si       2.66100592       0.92427046       2.73012495
Si       4.50385130       6.24308783       2.73012495
Si      -0.00095096       0.00029958       5.82485987
Si      -0.00095096       7.16705871       2.81114141
Si       3.58242861       3.58367915       5.82485987
Si       3.58242861       3.58367915       2.81114141
20
Lattice="7.145263582750159 8.636309459663333e-49 2.1121634926006623e-32 -9.358184593187972e-49 7.145263582750158 -5.098647160760226e-16 -1.2550789635607136e-32 -3.7269497303663636e-17 6.030090402195101" Properties=species:S:1:pos:R:3 unique_starting_index=96 config_type=initial n_minim_iter=13 stress="0.001216488366052528 -4.324736239651119e-16 1.8719738652018052e-17 -4.324736239651119e-16 0.0012164883660521126 8.159328190238792e-17 1.8719738652018052e-17 8.159328190238792e-17 0.0015340066305018663" pbc="T T T"
Si       5.35404905       4.41161316       1.27648704
Si       1.78931832       2.73424779       1.27648704
Si       4.41036637       1.79056510       4.29153224
Si       2.73300100       5.35529584       4.29153224
Si       5.36195011       0.83898137       1.27648704
Si       1.78141726       6.30687958       1.27648704
Si       6.30563279       5.36319689       4.29153224
Si       0.83773458       1.78266405       4.29153224
Si       2.65131397       0.91069116       5.74594283
Si       4.49205340       6.23516979       5.74594283
Si       0.90944437       4.49330019       2.73089763
Si       6.23392300       2.65256076       2.73089763
Si       0.91942161       4.48332295       5.74594283
Si       6.22394576       2.66253800       5.74594283
Si       2.66129121       0.92066840       2.73089763
Si       4.48207616       6.22519255       2.73089763
Si      -0.00094811       0.00029868       5.82325703
Si      -0.00094811       7.14556226       2.80821182
Si       3.57168369       3.57293047       5.82325703
Si       3.57168369       3.57293047       2.80821182
20
Lattice="7.139249925126242 9.274169745449396e-49 2.1252186471243676e-32 -1.1424744293163258e-48 7.139249925126243 -4.2331002115818326e-16 -1.2406873687627847e-32 4.016474488698028e-17 6.025000328247336" Properties=species:S:1:pos:R:3 unique_starting_index=96 config_type=initial n_minim_iter=14 stress="-0.0009143413805454754 -3.4471609720633467e-16 2.2435023058772576e-17 -3.4471609720633467e-16 -0.0009143413805462158 3.402858155092244e-16 2.2435023058772576e-17 3.402858155092244e-16 -0.0011183715425271221" pbc="T T T"
Si       5.34727116       4.40861093       1.27287103
Si       1.79008415       2.73123586       1.27287103
Si       4.40736519       1.79132989       4.28537120
Si       2.72999012       5.34851689       4.28537120
Si       5.35970912       0.83898596       1.27287103
Si       1.77764619       6.30086082       1.27287103
Si       6.29961508       5.36095485       4.28537120
Si       0.83774023       1.77889193       4.28537120
Si       2.65772766       0.91051285       5.74707041
Si       4.47962765       6.22933393       5.74707041
Si       0.90926712       4.48087339       2.73457025
Si       6.22808819       2.65897340       2.73457025
Si       0.91000269       4.48013781       5.74707041
Si       6.22735262       2.65970897       5.74707041
Si       2.65846323       0.91124842       2.73457025
Si       4.47889208       6.22859836       2.73457025
Si      -0.00094731       0.00029843       5.81146294
Si      -0.00094731       7.13954835       2.79896278
Si       3.56867766       3.56992339       5.81146294
Si       3.56867766       3.56992339       2.79896278
20
Lattice="7.129861925229951 1.0238390317995494e-48 2.1388728997015548e-32 -1.1479424308369302e-48 7.129861925229952 -3.9213170900013543e-16 -1.229134956299357e-32 6.863531351743133e-17 6.032956957186169" Properties=species:S:1:pos:R:3 unique_starting_index=96 config_type=initial n_minim_iter=15 stress="-0.0022690182815829807 -5.615643874479202e-17 6.43505856285675e-17 -5.615643874479202e-17 -0.002269018281583583 2.9112130237120194e-16 6.43505856285675e-17 2.9112130237120194e-16 -0.0022061619745759394" pbc="T T T"
Si       5.33944456       4.40403837       1.27020693
Si       1.78852524       2.72641962       1.27020693
Si       4.40279428       1.78976934       4.28668540
Si       2.72517553       5.34068866       4.28668540
Si       5.35345620       0.83910741       1.27020693
Si       1.77451360       6.29135059       1.27020693
Si       6.29010649       5.35470030       4.28668540
Si       0.83786331       1.77575770       4.28668540
Si       2.66346004       0.90914069       5.76466954
Si       4.46450976       6.22131731       5.76466954
Si       0.90789659       4.46575386       2.74819106
Si       6.22007321       2.66470414       2.74819106
Si       0.89957880       4.47407165       5.76466954
Si       6.22839100       2.65638634       5.76466954
Si       2.65514225       0.90082290       2.74819106
Si       4.47282756       6.22963510       2.74819106
Si      -0.00094606       0.00029804       5.80780864
Si      -0.00094606       7.13015996       2.79133016
Si       3.56398490       3.56522900       5.80780864
Si       3.56398490       3.56522900       2.79133016
20
Lattice="7.120140150879189 1.2016051934519011e-48 2.1608912562369187e-32 -1.0821897738475683e-48 7.120140150879187 -3.5982102791324046e-16 -1.2129452597540457e-32 9.863928010973687e-17 6.050282160750282" Properties=species:S:1:pos:R:3 unique_starting_index=96 config_type=initial n_minim_iter=16 stress="-0.002081104810779428 -1.235406011569576e-16 1.342906207396608e-16 -1.235406011569576e-16 -0.0020811048107804006 3.6749663137307756e-16 1.342906207396608e-16 3.6749663137307756e-16 -0.0011535920799646403" pbc="T T T"
Si       5.32956527       4.40402491       1.26282458
Si       1.78868534       2.71671050       1.26282458
Si       4.40278251       1.78992774       4.28796566
Si       2.71546810       5.33080767       4.28796566
Si       5.34875541       0.84395483       1.26282458
Si       1.76949520       6.27678058       1.26282458
Si       6.27553818       5.34999781       4.28796566
Si       0.84271243       1.77073760       4.28796566
Si       2.67018621       0.91100418       5.80232591
Si       4.44806440       6.20973123       5.80232591
Si       0.90976178       4.44930680       2.77718483
Si       6.20848883       2.67142861       2.77718483
Si       0.88799432       4.47107426       5.80232591
Si       6.23025629       2.64966116       5.80232591
Si       2.64841875       0.88923672       2.77718483
Si       4.46983185       6.23149869       2.77718483
Si      -0.00094477       0.00029763       5.80434417
Si      -0.00094477       7.12043778       2.77920309
Si       3.55912530       3.56036771       5.80434417
Si       3.55912530       3.56036771       2.77920309
20
Lattice="7.1359288372402 1.2825924042041085e-48 2.1832933834222574e-32 -9.727186804303064e-49 7.135928837240199 -3.7443769940116543e-16 -1.1925460542523887e-32 8.515421070565474e-17 6.040443085947125" Properties=species:S:1:pos:R:3 unique_starting_index=96 config_type=initial n_minim_iter=17 stress="0.0012172578661976178 -5.4167051889908684e-17 1.5349349100963634e-16 -5.4167051889908684e-17 0.001217257866197248 3.893285040383743e-16 1.5349349100963634e-16 3.893285040383743e-16 0.001160222947674413" pbc="T T T"
Si       5.34223188       4.41673587       1.26196581
Si       1.79180322       2.71978955       1.26196581
Si       4.41549071       1.79304838       4.28218735
Si       2.71854439       5.34347704       4.28218735
Si       5.35976764       0.84877145       1.26196581
Si       1.77426746       6.28775397       1.26196581
Si       6.28650881       5.36101280       4.28218735
Si       0.84752629       1.77551262       4.28218735
Si       2.66360630       0.90511382       5.79207219
Si       4.47042880       6.23141160       5.79207219
Si       0.90386867       4.47167396       2.77185065
Si       6.23016644       2.66485146       2.77185065
Si       0.90246439       4.47307824       5.79207219
Si       6.23157072       2.66344718       5.79207219
Si       2.66220202       0.90370954       2.77185065
Si       4.47183308       6.23281588       2.77185065
Si      -0.00094687       0.00029829       5.79415108
Si      -0.00094687       7.13622713       2.77392954
Si       3.56701755       3.56826271       5.79415108
Si       3.56701755       3.56826271       2.77392954
20
Lattice="7.133843005209581 1.2125929146655115e-48 2.1951059432635675e-32 -1.1104446115362406e-48 7.13384300520958 -3.5444200555686685e-16 -1.179744457010081e-32 1.028087423501653e-16 6.034666479930037" Properties=species:S:1:pos:R:3 unique_starting_index=96 config_type=initial n_minim_iter=18 stress="0.0007720108996276307 1.216282416493548e-16 2.0255510561266527e-16 1.216282416493548e-16 0.000772010899627353 3.527762880633989e-16 2.0255510561266527e-16 3.527762880633989e-16 0.0006394014796002882" pbc="T T T"
Si       5.33690950       4.41955199       1.25897382
Si       1.79504032       2.71488742       1.25897382
Si       4.41830720       1.79628512       4.27630706
Si       2.71364263       5.33815429       4.27630706
Si       5.36196183       0.85263049       1.25897382
Si       1.76998800       6.28180892       1.25897382
Si       6.28056413       5.36320662       4.27630706
Si       0.85138569       1.77123279       4.27630706
Si       2.66047277       0.91048872       5.78797082
Si       4.47147705       6.22395069       5.78797082
Si       0.90924393       4.47272185       2.77063758
Si       6.22270590       2.66171757       2.77063758
Si       0.90455555       4.47741022       5.78797082
Si       6.22739427       2.65702919       5.78797082
Si       2.65578439       0.90580034       2.77063758
Si       4.47616543       6.22863907       2.77063758
Si      -0.00094659       0.00029820       5.78930488
Si      -0.00094659       7.13414121       2.77197164
Si       3.56597491       3.56721971       5.78930488
Si       3.56597491       3.56721971       2.77197164
20
Lattice="7.131542815740547 1.1121157405929367e-48 2.207774754908984e-32 -1.123562330254976e-48 7.131542815740545 -3.840054713947523e-16 -1.1677552054128219e-32 7.617201576142098e-17 6.034023859495275" Properties=species:S:1:pos:R:3 unique_starting_index=96 config_type=initial n_minim_iter=19 stress="0.00017075818281495338 -2.053570837727607e-16 1.4604641224227055e-16 -2.053570837727607e-16 0.00017075818281402726 3.045842086051625e-16 1.4604641224227055e-16 3.045842086051625e-16 -2.1300817673540074e-06" pbc="T T T"
Si       5.33420810       4.41904783       1.26037914
Si       1.79544215       2.71309120       1.26037914
Si       4.41780344       1.79668654       4.27739107
Si       2.71184681       5.33545249       4.27739107
Si       5.36121356       0.85327642       1.26037914
Si       1.76843669       6.27886261       1.26037914
Si       6.27761821       5.36245795       4.27739107
Si       0.85203203       1.76968108       4.27739107
Si       2.65815947       0.90783085       5.78617326
Si       4.47149077       6.22430818       5.78617326
Si       0.90658645       4.47273517       2.76916133
Si       6.22306379       2.65940386       2.76916133
Si       0.90571937       4.47360225       5.78617326
Si       6.22393088       2.65853678       5.78617326
Si       2.65729238       0.90696376       2.76916133
Si       4.47235786       6.22517527       2.76916133
Si      -0.00094628       0.00029811       5.78797204
Si      -0.00094628       7.13184092       2.77096011
Si       3.56482512       3.56606951       5.78797204
Si       3.56482512       3.56606951       2.77096011
20
Lattice="7.129590447929279 1.1118112820724686e-48 2.220678660342593e-32 -1.1302823382915229e-48 7.129590447929279 -3.841192656104841e-16 -1.1563927795130147e-32 7.615116251892712e-17 6.0358119512386175" Properties=species:S:1:pos:R:3 unique_starting_index=96 config_type=initial n_minim_iter=20 stress="-4.092983986424518e-05 1.3020318561677777e-16 9.275512369694075e-17 1.3020318561677777e-16 -4.092983986521787e-05 3.564989452529339e-16 9.275512369694075e-17 3.564989452529339e-16 -8.153182081162539e-05" pbc="T T T"
Si       5.33218421       4.41844858       1.26122088
Si       1.79551419       2.71173792       1.26122088
Si       4.41720453       1.79675824       4.27912686
Si       2.71049387       5.33342826       4.27912686
Si       5.36030941       0.85365335       1.26122088
Si       1.76738898       6.27653315       1.26122088
Si       6.27528909       5.36155346       4.27912686
Si       0.85240930       1.76863303       4.27912686
Si       2.65721275       0.90700482       5.78793443
Si       4.47048565       6.22318167       5.78793443
Si       0.90576077       4.47172970       2.77002845
Si       6.22193762       2.65845680       2.77002845
Si       0.90569043       4.47180005       5.78793443
Si       6.22200797       2.65838645       5.78793443
Si       2.65714240       0.90693448       2.77002845
Si       4.47055600       6.22325202       2.77002845
Si      -0.00094603       0.00029803       5.78865767
Si      -0.00094603       7.12988847       2.77075170
Si       3.56384920       3.56509325       5.78865767
Si       3.56384920       3.56509325       2.77075170
