8
Lattice="5.3723131601144845 0.540355933238938 -0.8569981042260193 2.216951836838845 6.6278213019294085 -2.3576250533139915 -0.01953734671879994 -0.5539307232300742 5.424150575509969" Properties=species:S:1:pos:R:3 unique_starting_index=84 config_type=initial n_minim_iter=10 energy=-1306.0109746246867 free_energy=-1306.0109746246867 pbc="T T T"
Si       4.94843292       4.10562899      -1.96227487
Si       2.62129473       2.50861752       4.17180229
Si       4.55627201       2.14804608      -1.24698052
Si       3.01345564       4.46620043       3.45650793
Si       1.86531203       5.66914519       2.14150770
Si       5.70441563       0.94510132       0.06801972
Si       6.75154985       4.02672193       1.66618276
Si       0.81817780       2.58752458       0.54334466
