16
Lattice="9.945313008700705 -1.067257155227596 -0.2020974048193752 1.1050042428866318 8.456645264607296 0.4011903160956608 2.3253360344824934 2.921408907869577 7.9916380428859215" Properties=species:S:1:pos:R:3 unique_starting_index=30 config_type=initial n_minim_iter=1 energy=-2619.5617773804724 free_energy=-2619.5617773804724 pbc="T T T"
Si       8.45347756       4.94038469       4.77007918
Si       4.92217573       5.37041232       3.42065178
Si       3.26545493       4.84531757       2.25999712
Si      10.11019836       5.46547945       5.93073384
Si       8.49763787       4.42671494       6.82517126
Si       4.87801542       5.88408208       1.36555969
Si       5.87190595       4.67426107      -0.06489931
Si       7.50374734       5.63653594       8.25563026
Si       3.16503040       6.55468127       3.50060139
Si      10.21062289       3.75611575       4.69012956
Si      11.45512003       4.21220176       3.03919190
Si       1.92053326       6.09859526       5.15153905
Si       3.17692432       4.62362426       4.36815226
Si      10.19872897       5.68717276       3.82257870
Si       5.53282736       7.89089970       1.20836606
Si       7.84282593       2.41989732       6.98236490
