22
Lattice="5.751561266002308 -0.07375794587450056 -0.6191756582260076 -0.7832527580782265 9.746131213376161 -2.6455943356115204 -2.8129973483002852 -7.041426172699413 13.059487830451802" Properties=species:S:1:pos:R:3 unique_starting_index=51 config_type=initial n_minim_iter=1 energy=-3587.150324784887 free_energy=-3587.150324784887 pbc="T T T"
Si       3.11216854       7.87570059       0.51026759
Si      -1.85035709       0.02412660       6.83059923
Si       0.72403594       8.11684600      -2.84746115
Si      -1.23236166       4.58396836       1.80035429
Si      -0.01207027      -0.84876448       6.21890555
Si       4.69695515       0.04685460       4.01806390
Si      -0.07537872       1.40870815       1.21887305
Si       0.37698781       1.95701691      -0.77762772
Si       1.16445689      -2.57178768       5.85873827
Si       2.57918871      -0.74201030       9.04541995
Si      -1.01357450       1.18194657       8.39801472
Si       4.65929194       1.59408276       2.45710181
Si       0.21726118       3.17392578       2.35253560
Si       1.87424443      -4.05302787      12.77941450
Si       1.09126649      -1.79546746      10.70058533
Si       4.22228068       6.48003228       1.93375531
Si       1.64388523       0.37803001       0.50469577
Si       2.90647287       2.58700110       8.41657379
Si       1.96823389      -0.58493462       6.96387334
Si       0.20418986      -1.56694447       4.23451375
Si       3.54927168       1.42893892       0.64463712
Si       1.79400556      -1.85278079       1.88291445
22
Lattice="5.740838782464465 -0.0704081559030705 -0.6176709686609003 -0.7768432848755348 9.742093886861758 -2.645437427786835 -2.8082221576663495 -7.039290928222796 13.061235018316207" Properties=species:S:1:pos:R:3 unique_starting_index=51 config_type=initial n_minim_iter=2 stress="-0.00930004398622301 0.0019124645478619557 0.0006046842715129104 0.0019124645478619557 -0.006258049026641748 -0.0011904869588699185 0.0006046842715129104 -0.0011904869588699185 -0.003569423078985618" pbc="T T T"
Si       3.11150183       7.87493321       0.51213829
Si      -1.84500706       0.02356672       6.83175880
Si       0.72655449       8.11410348      -2.84713758
Si      -1.22686208       4.58212759       1.80100213
Si      -0.01068482      -0.84739140       6.22024120
Si       4.68976812       0.04983991       4.02059549
Si      -0.07428902       1.40833117       1.21988744
Si       0.37724540       1.95661234      -0.77745625
Si       1.16274861      -2.56942379       5.86035419
Si       2.57675156      -0.73916523       9.04840516
Si      -1.00848390       1.18192147       8.39971338
Si       4.65290260       1.59624925       2.45889408
Si       0.21924849       3.17315127       2.35364882
Si       1.87197463      -4.04945049      12.78302175
Si       1.09141185      -1.79267009      10.70330160
Si       4.21849121       6.48019014       1.93625106
Si       1.64115962       0.37882745       0.50511592
Si       2.90525700       2.58865331       8.41982767
Si       1.96607657      -0.58288015       6.96614761
Si       0.20385486      -1.56561672       4.23499995
Si       3.54386813       1.43065912       0.64609108
Si       1.79032914      -1.85080950       1.88407457
22
Lattice="5.73937247493269 -0.06907359692464352 -0.6171269823021519 -0.7744742875628056 9.74884764612868 -2.6447733502147144 -2.8069210835651983 -7.0413166075523295 13.070603786875962" Properties=species:S:1:pos:R:3 unique_starting_index=51 config_type=initial n_minim_iter=3 stress="-0.007293757401170704 0.002704695018853303 0.0010194605079856746 0.002704695018853303 0.003775159763702379 0.0025100087728541745 0.0010194605079856746 0.0025100087728541745 0.008387273152994052" pbc="T T T"
Si       3.11321768       7.88230124       0.51582812
Si      -1.84344558       0.02518500       6.83784057
Si       0.72788095       8.11966029      -2.84690874
Si      -1.22490157       4.58650181       1.80407885
Si      -0.00948532      -0.84528663       6.22543358
Si       4.68978172       0.05228719       4.02554046
Si      -0.07395687       1.40985213       1.22258348
Si       0.37761252       1.95824047      -0.77735437
Si       1.16343798      -2.56897844       5.86534243
Si       2.57790760      -0.73581588       9.05721280
Si      -1.00604961       1.18554933       8.40731506
Si       4.65351733       1.59906503       2.46217528
Si       0.22030609       3.17646828       2.35717361
Si       1.87254155      -4.04813852      12.79448968
Si       1.09296477      -1.78946872      10.71277232
Si       4.21885920       6.48663827       1.94127490
Si       1.64104682       0.37943928       0.50553364
Si       2.90722059       2.59420493       8.42919846
Si       1.96650744      -0.58054075       6.97299853
Si       0.20404066      -1.56499173       4.23771464
Si       3.54345986       1.43307986       0.64809146
Si       1.79003224      -1.85100607       1.88616576
22
Lattice="5.742291046225234 -0.06796004361967542 -0.6144433999061989 -0.7740753477332235 9.750004538870678 -2.6435749671610056 -2.804878058828329 -7.043599896628208 13.059175233119346" Properties=species:S:1:pos:R:3 unique_starting_index=51 config_type=initial n_minim_iter=4 stress="-0.0013923604681169216 0.0030485505229539823 0.000711147147544077 0.0030485505229539823 0.0032435100994151864 -0.002591031237762948 0.000711147147544077 -0.002591031237762948 0.00027397720906808165" pbc="T T T"
Si       3.11684068       7.88356321       0.51553956
Si      -1.84292044       0.02376004       6.83166022
Si       0.72794713       8.11999541      -2.84437719
Si      -1.22385253       4.58775550       1.80152883
Si      -0.00644052      -0.84343061       6.21824395
Si       4.69491622       0.05189836       4.02464622
Si      -0.07413676       1.41029913       1.22543808
Si       0.37810351       1.95911168      -0.77602714
Si       1.16775290      -2.56872607       5.86139729
Si       2.58320083      -0.73538593       9.05070206
Si      -1.00258825       1.18512806       8.39761826
Si       4.66010673       1.59753413       2.45983224
Si       0.22087681       3.17590672       2.35552082
Si       1.87583926      -4.04973953      12.78691973
Si       1.09787143      -1.78748192      10.70345033
Si       4.21997187       6.48587157       1.94114329
Si       1.64235531       0.37827482       0.50340309
Si       2.91340416       2.59380213       8.42318049
Si       1.96879460      -0.58117648       6.96839965
Si       0.20482663      -1.56410293       4.23205479
Si       3.54528071       1.43408558       0.64962267
Si       1.79232116      -1.85034749       1.88725589
22
Lattice="5.741911757649985 -0.07374629807920488 -0.6144919952489887 -0.7826497661151789 9.736842104524532 -2.631264253416172 -2.7980473118144062 -7.016281753103882 13.052871268778356" Properties=species:S:1:pos:R:3 unique_starting_index=51 config_type=initial n_minim_iter=5 stress="-0.0030000655464630485 -0.003353921499469809 -0.00038436890273012124 -0.003353921499469809 -0.0009382065392083184 0.0045853467122805094 -0.00038436890273012124 0.0045853467122805094 0.0001018416623684322" pbc="T T T"
Si       3.10969863       7.87300229       0.52586886
Si      -1.84335506       0.03409927       6.83352122
Si       0.72017109       8.10623134      -2.83359942
Si      -1.22753677       4.58699858       1.80776566
Si      -0.00451775      -0.83293718       6.21732592
Si       4.69505928       0.05281530       4.02592189
Si      -0.07475607       1.41016632       1.22848391
Si       0.37640792       1.95572382      -0.77264270
Si       1.17054851      -2.55870450       5.85929730
Si       2.58442047      -0.72432116       9.05198336
Si      -1.00282086       1.19608445       8.39949810
Si       4.65978518       1.59318827       2.46257939
Si       0.21759551       3.17548588       2.36084282
Si       1.87847563      -4.03045935      12.78626298
Si       1.10018914      -1.77022190      10.70300290
Si       4.21314108       6.47775029       1.95039723
Si       1.64174713       0.37639102       0.50283935
Si       2.91174469       2.59940129       8.42860951
Si       1.96857192      -0.57330381       6.96976123
Si       0.20564555      -1.55721802       4.23009267
Si       3.54306703       1.43041083       0.65243308
Si       1.79453264      -1.84691182       1.88638903
22
Lattice="5.744269820900688 -0.07046672864128366 -0.6129050214861879 -0.7784908261003346 9.726932307510056 -2.633309458419407 -2.7982652700970423 -7.009890634330493 13.064622394486998" Properties=species:S:1:pos:R:3 unique_starting_index=51 config_type=initial n_minim_iter=6 stress="0.003326185670743843 0.0004535411784711199 -0.0018072683467967529 0.0004535411784711199 -0.005268368948605369 0.002239051765698738 -0.0018072683467967529 0.002239051765698738 0.009242448016796667" pbc="T T T"
Si       3.11534245       7.86702629       0.52757048
Si      -1.84254500       0.03295320       6.84027307
Si       0.72332008       8.09742731      -2.83387970
Si      -1.22437650       4.58288281       1.80871563
Si      -0.00071691      -0.82973773       6.22126266
Si       4.69908095       0.05578175       4.03149158
Si      -0.07116680       1.40747183       1.23027762
Si       0.37741569       1.95392746      -0.77103525
Si       1.17173356      -2.55383008       5.86506117
Si       2.58937779      -0.72057185       9.06212930
Si      -0.99858589       1.19548821       8.40464466
Si       4.66531738       1.59054781       2.46794499
Si       0.21983312       3.17360010       2.36450502
Si       1.87985275      -4.02426468      12.80289626
Si       1.10469914      -1.76279137      10.71303603
Si       4.21845846       6.47434615       1.95500715
Si       1.64205493       0.37618785       0.50214935
Si       2.91870092       2.59906964       8.43822746
Si       1.97047820      -0.57146848       6.97864553
Si       0.20559836      -1.55559890       4.23326219
Si       3.54416826       1.43102791       0.65610579
Si       1.79625968      -1.84288653       1.89063231
22
Lattice="5.7405058000158515 -0.07106707132849101 -0.6077793861024416 -0.7807458460805091 9.74076210030333 -2.629315037631968 -2.7859014158262703 -7.017311205904472 13.048318731991944" Properties=species:S:1:pos:R:3 unique_starting_index=51 config_type=initial n_minim_iter=7 stress="0.00026012488326095876 0.00011351249550755614 0.0007519607035734579 0.00011351249550755614 0.002685500913271544 0.003707209879281186 0.0007519607035734579 0.003707209879281186 0.000928528411885834" pbc="T T T"
Si       3.11301861       7.87819686       0.53045940
Si      -1.83669769       0.03380771       6.83249652
Si       0.72028278       8.10769083      -2.82804359
Si      -1.22220282       4.59084626       1.80638561
Si       0.00550643      -0.82809194       6.21317188
Si       4.69952670       0.05657955       4.03074237
Si      -0.06845592       1.40869430       1.22951495
Si       0.37641380       1.95657122      -0.76772797
Si       1.17533203      -2.55578834       5.85907900
Si       2.59553711      -0.71957139       9.05502314
Si      -0.99136040       1.19919036       8.39406203
Si       4.66552811       1.58964574       2.47038045
Si       0.22090962       3.17935224       2.36368381
Si       1.88750251      -4.02781723      12.79340901
Si       1.11336577      -1.75978812      10.70208806
Si       4.21679720       6.48445978       1.95827393
Si       1.64093957       0.37613049       0.50150249
Si       2.92424375       2.60413155       8.43243593
Si       1.97390994      -0.57143275       6.97425041
Si       0.20826665      -1.55749540       4.22832100
Si       3.54142896       1.43279462       0.66006683
Si       1.79783056      -1.84438483       1.89097889
22
Lattice="5.735500650061779 -0.07528683914966339 -0.6066328933207439 -0.7891615605102915 9.751229098501348 -2.6437475385383524 -2.7739561127145085 -7.035866254026735 13.066580850528844" Properties=species:S:1:pos:R:3 unique_starting_index=51 config_type=initial n_minim_iter=8 stress="-0.0029395354985766032 -0.006986499366324144 -0.0009218878461608517 -0.006986499366324144 0.004907332710054759 -0.003018583403154052 -0.0009218878461608517 -0.003018583403154052 0.0047632797347075375" pbc="T T T"
Si       3.10246353       7.87950232       0.52040228
Si      -1.83342471       0.02540583       6.83761980
Si       0.71360587       8.11458878      -2.84003848
Si      -1.22406468       4.59486934       1.80140212
Si       0.00902226      -0.83350862       6.21669505
Si       4.69566273       0.04839744       4.03327052
Si      -0.06797499       1.40905139       1.22974420
Si       0.37429772       1.95815389      -0.76860789
Si       1.17610348      -2.56535661       5.86527703
Si       2.59701792      -0.73327549       9.06305589
Si      -0.99032206       1.19044239       8.39717566
Si       4.66184796       1.57791536       2.47361390
Si       0.21731633       3.17762119       2.36177881
Si       1.89121588      -4.05008027      12.81255757
Si       1.11809026      -1.76897378      10.71100217
Si       4.20877011       6.48395697       1.95401775
Si       1.63975628       0.37278004       0.49931651
Si       2.92265354       2.59286383       8.43520245
Si       1.97351659      -0.58294335       6.98301675
Si       0.20997822      -1.56509936       4.23250632
Si       3.53610049       1.42894385       0.66311452
Si       1.80009214      -1.84777739       1.89674716
22
Lattice="5.738394208938644 -0.06771563242276298 -0.6014628264815192 -0.7788176458822914 9.749855935282223 -2.6409224053149214 -2.773550336560192 -7.035683934084047 13.060530290564301" Properties=species:S:1:pos:R:3 unique_starting_index=51 config_type=initial n_minim_iter=9 stress="0.0019396483378442014 -0.000829092413444702 0.0021092534901241845 -0.000829092413444702 -0.00027755514014342217 0.000536573249621421 0.0021092534901241845 0.000536573249621421 -0.002232055870232347" pbc="T T T"
Si       3.11273462       7.88317196       0.52304362
Si      -1.82841136       0.02242790       6.83565132
Si       0.72611542       8.11346372      -2.83667946
Si      -1.21598582       4.59811195       1.80136694
Si       0.01456924      -0.82655890       6.21122689
Si       4.70063097       0.05740002       4.03403840
Si      -0.06349321       1.41162882       1.23122610
Si       0.37668727       1.95763770      -0.76410152
Si       1.17502533      -2.56091314       5.86155374
Si       2.60654756      -0.72670435       9.06292120
Si      -0.98425018       1.19211584       8.39399413
Si       4.67058280       1.57547770       2.48173952
Si       0.22124802       3.17746962       2.36325751
Si       1.89620739      -4.04799160      12.81799243
Si       1.12814990      -1.75277985      10.70692431
Si       4.22279742       6.49287174       1.96180265
Si       1.64275716       0.37254559       0.49678305
Si       2.93703293       2.59941308       8.43561113
Si       1.97891757      -0.57923668       6.98796576
Si       0.21118506      -1.56546216       4.23005484
Si       3.53903520       1.43216808       0.67306669
Si       1.80328768      -1.84161407       1.89934914
22
Lattice="5.737513277772594 -0.064568733956829 -0.6107071309292618 -0.7690611628280346 9.753859762039408 -2.640917658072894 -2.7972369632963088 -7.041280123047375 13.067933934598228" Properties=species:S:1:pos:R:3 unique_starting_index=51 config_type=initial n_minim_iter=10 stress="0.0006420098456372563 0.00040067379187424835 -0.007466811714827239 0.00040067379187424835 0.0027453478834037195 0.0015764577993657317 -0.007466811714827239 0.0015764577993657317 -0.005647273277791494" pbc="T T T"
Si       3.11461904       7.88775775       0.51629936
Si      -1.83895553       0.01971837       6.84033547
Si       0.73681006       8.11773445      -2.83881186
Si      -1.21520497       4.60074396       1.80270370
Si       0.00479509      -0.82495495       6.20994108
Si       4.69165736       0.05953531       4.02604374
Si      -0.06396975       1.41090358       1.23161383
Si       0.37925923       1.95770835      -0.76447808
Si       1.16312311      -2.56140279       5.85937204
Si       2.59149558      -0.72631679       9.05980402
Si      -0.99843163       1.19136741       8.39655916
Si       4.66668513       1.57566146       2.47576439
Si       0.21667051       3.17765044       2.36453581
Si       1.87204449      -4.05074118      12.82070608
Si       1.11098533      -1.74759335      10.70543166
Si       4.22146070       6.49871092       1.95590183
Si       1.64224847       0.37300171       0.49313632
Si       2.92522378       2.60047796       8.43178516
Si       1.96686836      -0.57955164       6.98827008
Si       0.20240348      -1.56711824       4.22971518
Si       3.53798268       1.43309519       0.67191066
Si       1.79989317      -1.83959170       1.89542191
22
Lattice="5.738693664913103 -0.05859522313889203 -0.6073806635375226 -0.763993233917722 9.751318091109532 -2.671858188701066 -2.790877941074712 -7.064227595211883 13.132870862700756" Properties=species:S:1:pos:R:3 unique_starting_index=51 config_type=initial n_minim_iter=11 stress="0.005282610169008742 -0.00013110063660099123 -0.00014877308470540558 -0.00013110063660099123 0.002851956675083042 -0.000686700435964861 -0.00014877308470540558 -0.000686700435964861 0.0005802497856571975" pbc="T T T"
Si       3.11856431       7.88069386       0.49800000
Si      -1.83535524      -0.00255335       6.86976812
Si       0.75341640       8.11914024      -2.86625275
Si      -1.20534917       4.60086986       1.79563540
Si       0.01373472      -0.82321867       6.22271777
Si       4.68899232       0.05426847       4.03862717
Si      -0.05758775       1.39748339       1.23559382
Si       0.38260911       1.95106728      -0.76881895
Si       1.16402337      -2.56720602       5.88062425
Si       2.60443538      -0.74110386       9.09716695
Si      -1.00155856       1.17279153       8.42689051
Si       4.67745196       1.55947790       2.49217106
Si       0.20485297       3.16271678       2.37842566
Si       1.87565311      -4.07658850      12.90139681
Si       1.12736459      -1.72868272      10.74276715
Si       4.22627943       6.49939754       1.95986107
Si       1.64762354       0.37139836       0.49228517
Si       2.94250120       2.57776655       8.46012791
Si       1.97566997      -0.59453667       7.03272333
Si       0.19770643      -1.57918526       4.24603144
Si       3.54410618       1.42393872       0.70256501
Si       1.80780238      -1.82816163       1.89708833
22
Lattice="5.737395725187998 -0.04884267031448685 -0.6079096200487717 -0.7514157899784865 9.775696696923251 -2.715341576421359 -2.7960842359179665 -7.123822351785895 13.20777681754363" Properties=species:S:1:pos:R:3 unique_starting_index=51 config_type=initial n_minim_iter=12 stress="0.00845105692541133 -0.0033149688057980023 -0.0026307533319672328 -0.0033149688057980023 0.00784752279550831 -0.0017064474777592443 -0.0026307533319672328 -0.0017064474777592443 0.0007968817512211234" pbc="T T T"
Si       3.12137438       7.89377743       0.46568874
Si      -1.83583945      -0.03578215       6.89958845
Si       0.76763811       8.13942679      -2.90934829
Si      -1.19277443       4.60751027       1.78308627
Si       0.02551223      -0.83529199       6.23922950
Si       4.67836940       0.04281014       4.04935940
Si      -0.05844937       1.39127470       1.23311349
Si       0.38218235       1.94837824      -0.76555785
Si       1.15966106      -2.58467604       5.90414416
Si       2.61288721      -0.76476329       9.13548798
Si      -1.00642116       1.14592518       8.45148850
Si       4.68817557       1.55128354       2.50195176
Si       0.19302534       3.15320315       2.38711191
Si       1.87072629      -4.13593611      12.98269802
Si       1.13430539      -1.72766336      10.78079835
Si       4.22950505       6.51573524       1.95134266
Si       1.65518080       0.37608572       0.48873802
Si       2.95750329       2.54803371       8.49053270
Si       1.97361083      -0.62001602       7.06944723
Si       0.19260736      -1.59998658       4.26793036
Si       3.54979805       1.42028032       0.72176141
Si       1.81241955      -1.82250663       1.89811187
22
Lattice="5.740533812768522 -0.03554598118818417 -0.6038171440679162 -0.7364900674096636 9.804183074105367 -2.767929591377059 -2.7963058725633907 -7.1959361841525205 13.293461158155674" Properties=species:S:1:pos:R:3 unique_starting_index=51 config_type=initial n_minim_iter=13 stress="0.009156972762137724 -0.003472802387010455 -0.0010245414257149758 -0.003472802387010455 0.009196394487078876 -0.0012492851428512624 -0.0010245414257149758 -0.0012492851428512624 0.006152159652285016" pbc="T T T"
Si       3.13522916       7.91103691       0.43156963
Si      -1.82878199      -0.07728300       6.93059102
Si       0.78302746       8.16730455      -2.95714274
Si      -1.17652136       4.61294520       1.76772731
Si       0.03245898      -0.84569921       6.25966551
Si       4.67722928       0.02662044       4.07305406
Si      -0.05719096       1.38422431       1.23648950
Si       0.38120343       1.94512821      -0.76213424
Si       1.16154558      -2.60787255       5.93336662
Si       2.63095974      -0.79427514       9.18213122
Si      -1.00217168       1.11403199       8.47796547
Si       4.70678766       1.54299186       2.51936736
Si       0.18770373       3.14558383       2.39179773
Si       1.87430955      -4.20459086      13.07470929
Si       1.15036179      -1.73338287      10.82827522
Si       4.24375027       6.53855879       1.94001899
Si       1.66521643       0.37988580       0.48534286
Si       2.98441308       2.51563933       8.53105116
Si       1.98145225      -0.64910248       7.11090797
Si       0.18460159      -1.62989671       4.29485970
Si       3.55771823       1.42047819       0.73624375
Si       1.81920396      -1.81708028       1.90122631
22
Lattice="5.748920912958989 -0.020330064175684073 -0.6085173932501226 -0.714519163350709 9.814958923275782 -2.8141036622523377 -2.8230434914998277 -7.255355976325933 13.362451470859012" Properties=species:S:1:pos:R:3 unique_starting_index=51 config_type=initial n_minim_iter=14 stress="0.006173654263880303 1.811078946342845e-05 -0.0023893439733674625 1.811078946342845e-05 0.0002595104367129486 -0.004529856735400475 -0.0023893439733674625 -0.004529856735400475 0.004060625068508134" pbc="T T T"
Si       3.15511489       7.91586973       0.39204766
Si      -1.84139457      -0.11828721       6.95632227
Si       0.81085335       8.18434855      -3.00631300
Si      -1.16189904       4.61220945       1.75482479
Si       0.03706962      -0.85484148       6.27189490
Si       4.67329464       0.01119869       4.08583111
Si      -0.05225521       1.37231014       1.24374464
Si       0.38170474       1.93568792      -0.75610086
Si       1.15222439      -2.62278257       5.95031884
Si       2.63443333      -0.82310688       9.20839624
Si      -1.01374034       1.08095104       8.49797932
Si       4.72404741       1.53127239       2.52423223
Si       0.18089632       3.13536586       2.38932763
Si       1.85236924      -4.26784110      13.14091459
Si       1.14864182      -1.73430345      10.85818345
Si       4.25878582       6.54589496       1.91879259
Si       1.67401440       0.38372046       0.48476161
Si       2.99603581       2.48374230       8.54911351
Si       1.97618779      -0.67613342       7.13192827
Si       0.16912812      -1.65805662       4.31077137
Si       3.56825142       1.42456556       0.73896553
Si       1.82446494      -1.80715358       1.89973671
22
Lattice="5.753028129778723 -0.013880245393170775 -0.6158613286593815 -0.7040208031513546 9.82553562530299 -2.845550342774527 -2.8450389655409984 -7.297024907223374 13.410002833300359" Properties=species:S:1:pos:R:3 unique_starting_index=51 config_type=initial n_minim_iter=15 stress="0.004339908450539563 0.0008067049654151244 -0.0013109820596764314 0.0008067049654151244 3.140780595683612e-05 -0.0020895920044544302 -0.0013109820596764314 -0.0020895920044544302 0.0016564140533129985" pbc="T T T"
Si       3.15699845       7.91793310       0.35746304
Si      -1.85076996      -0.15210602       6.97442839
Si       0.82766791       8.19553907      -3.03609629
Si      -1.15229064       4.61320310       1.74578425
Si       0.03093139      -0.85496131       6.27857884
Si       4.66179440      -0.00333835       4.09070105
Si      -0.05057324       1.35975209       1.25125645
Si       0.37843015       1.92441976      -0.74388490
Si       1.14195556      -2.63222045       5.95568912
Si       2.63210433      -0.84507536       9.21993450
Si      -1.02727859       1.06030978       8.50489688
Si       4.73448360       1.51798238       2.52130429
Si       0.16571206       3.12981020       2.38974439
Si       1.82570995      -4.32256354      13.18846083
Si       1.14235023      -1.72429379      10.87576761
Si       4.25787879       6.54531484       1.90198740
Si       1.68014613       0.38499965       0.48815881
Si       2.99262022       2.46238547       8.55269587
Si       1.96991483      -0.69756562       7.14076756
Si       0.16042694      -1.68039702       4.32037149
Si       3.57789988       1.42912965       0.73903023
Si       1.83065328      -1.79728175       1.89347004
22
Lattice="5.755824377113265 -0.011216155133846707 -0.6285279632778025 -0.6950745887947783 9.827672343841211 -2.8552213973655713 -2.875940650097306 -7.309902357901045 13.434650885959984" Properties=species:S:1:pos:R:3 unique_starting_index=51 config_type=initial n_minim_iter=16 stress="-0.0033103932420619248 0.0004790249963077763 -0.0010281690048822012 0.0004790249963077763 -0.008500869887913534 0.0021652213591050458 -0.0010281690048822012 0.0021652213591050458 -0.005420522124326887" pbc="T T T"
Si       3.15819768       7.91756378       0.33800508
Si      -1.86429527      -0.17023148       6.98549838
Si       0.84113263       8.20172235      -3.05462408
Si      -1.14785593       4.60957607       1.74461266
Si       0.01769011      -0.85707261       6.28099224
Si       4.64641225      -0.00619515       4.08033399
Si      -0.05273006       1.35029135       1.26131649
Si       0.37619801       1.92076670      -0.73529252
Si       1.12529765      -2.62781549       5.95491720
Si       2.61753048      -0.85194824       9.21784132
Si      -1.04594040       1.05588897       8.51111400
Si       4.73856527       1.51238260       2.51246183
Si       0.14948700       3.12867077       2.39423299
Si       1.79370669      -4.34196850      13.20715915
Si       1.12349132      -1.70866515      10.88436311
Si       4.25301530       6.54520270       1.88913243
Si       1.68188318       0.38163530       0.48516325
Si       2.97925732       2.45350543       8.55362759
Si       1.96053846      -0.70484672       7.13936447
Si       0.14475423      -1.69022041       4.32847578
Si       3.57835585       1.42999656       0.73530774
Si       1.83372363      -1.78963770       1.89127800
22
Lattice="5.76006301635136 -0.00901683571563986 -0.6390317781562832 -0.6880725212786701 9.836597097757155 -2.8653787962010746 -2.9024083317884215 -7.3281045248653145 13.456770829271269" Properties=species:S:1:pos:R:3 unique_starting_index=51 config_type=initial n_minim_iter=17 stress="-0.0026473431252826817 0.0026697027989366273 0.0013205205305764683 0.0026697027989366273 -0.005603986283737334 0.0025805483817271085 0.0013205205305764683 0.0025805483817271085 -0.0032805237433833974" pbc="T T T"
Si       3.15989584       7.92248857       0.32045334
Si      -1.87654367      -0.18597418       6.99526654
Si       0.85324345       8.20943140      -3.07298810
Si      -1.14531589       4.60970636       1.74317794
Si       0.00506582      -0.85879575       6.28327617
Si       4.63769394      -0.01022019       4.07135233
Si      -0.05167270       1.34675616       1.26406947
Si       0.37464771       1.92002073      -0.72822459
Si       1.11632712      -2.63098684       5.95823515
Si       2.60644907      -0.85947221       9.21589333
Si      -1.06209560       1.05101408       8.51789744
Si       4.74312904       1.50952080       2.50828631
Si       0.13535490       3.12625027       2.39677132
Si       1.77190347      -4.36125718      13.22196964
Si       1.10812214      -1.70105626      10.89333411
Si       4.24990867       6.54789847       1.87544904
Si       1.68099463       0.38150238       0.48414473
Si       2.96822828       2.44742741       8.55267188
Si       1.95346272      -0.71275871       7.13761789
Si       0.12916409      -1.69761135       4.33415787
Si       3.57600701       1.42777329       0.73264098
Si       1.83683884      -1.78567531       1.89073714
22
Lattice="5.763663993859978 -0.004160249734973292 -0.6487440363399045 -0.6771448879026707 9.855724423383773 -2.8795379175510507 -2.9296076175898667 -7.35878836873274 13.4842085487027" Properties=species:S:1:pos:R:3 unique_starting_index=51 config_type=initial n_minim_iter=18 stress="0.002491493962529469 0.002738499186234071 0.00154272448622185 0.002738499186234071 0.0015292001063668922 0.0031992816718920195 0.00154272448622185 0.0031992816718920195 -0.0010834534331783591" pbc="T T T"
Si       3.15948172       7.93555874       0.29800166
Si      -1.88916792      -0.20639901       7.00865267
Si       0.87163522       8.22640397      -3.08832118
Si      -1.13950500       4.61506261       1.74086224
Si      -0.00195200      -0.86342687       6.28707654
Si       4.62843760      -0.01465550       4.05988986
Si      -0.05484575       1.34297136       1.27106270
Si       0.37496372       1.92141007      -0.72351900
Si       1.10658674      -2.63944931       5.96635642
Si       2.59680404      -0.87027790       9.21422663
Si      -1.07640395       1.04493404       8.52441581
Si       4.74948693       1.50515525       2.50763266
Si       0.12111344       3.12731681       2.40026843
Si       1.75031709      -4.39075018      13.24536947
Si       1.09545059      -1.69026652      10.90682061
Si       4.25320090       6.56101930       1.85805214
Si       1.67813056       0.38237267       0.48417256
Si       2.96028064       2.44211134       8.55375926
Si       1.94656910      -0.72357739       7.13599978
Si       0.10922767      -1.70752783       4.34237150
Si       3.57649632       1.42623070       0.73158638
Si       1.84093437      -1.78014366       1.88378153
22
Lattice="5.768698425299472 -0.007251711915935529 -0.6643744374289804 -0.678917977740143 9.869150934160446 -2.9093630869642793 -2.9581176297731897 -7.3948020511601085 13.541054752827838" Properties=species:S:1:pos:R:3 unique_starting_index=51 config_type=initial n_minim_iter=19 stress="-0.0013567033016334998 0.00044249884562829275 0.0008851108867255562 0.00044249884562829275 0.0007593318437760608 0.002480934497559151 0.0008851108867255562 0.002480934497559151 -8.583478424079454e-06" pbc="T T T"
Si       3.13947490       7.93349183       0.25840530
Si      -1.90334598      -0.23561838       7.03447222
Si       0.88297348       8.23832849      -3.12885396
Si      -1.14122773       4.61653660       1.73560584
Si      -0.01673251      -0.87326496       6.29571372
Si       4.61656691      -0.03592418       4.05106235
Si      -0.06231638       1.33104256       1.27768412
Si       0.37417718       1.91723444      -0.71837179
Si       1.09182610      -2.65333896       5.98577911
Si       2.58429723      -0.89318768       9.21968330
Si      -1.10348964       1.02814469       8.54275283
Si       4.75191430       1.48452278       2.50670151
Si       0.09689843       3.12375225       2.40615680
Si       1.71824460      -4.43793552      13.29697244
Si       1.07850454      -1.68052770      10.93747963
Si       4.24737018       6.55630624       1.83087829
Si       1.67194248       0.37908895       0.48436006
Si       2.94334443       2.41637238       8.56216375
Si       1.93605077      -0.74757212       7.14140294
Si       0.08638860      -1.71898370       4.35549050
Si       3.57913979       1.41671173       0.72787750
Si       1.85089587      -1.77402017       1.87857115
22
Lattice="5.773783193160168 -0.007585747267565575 -0.6785375658719847 -0.6762613396585457 9.889788399218117 -2.935969497745332 -2.9873250774395554 -7.434512552262418 13.592502345566592" Properties=species:S:1:pos:R:3 unique_starting_index=51 config_type=initial n_minim_iter=20 stress="-0.005388613911495789 0.0006926421117241634 0.00022769417238837733 0.0006926421117241634 -0.0007819258998752172 0.0028467335072169895 0.00022769417238837733 0.0028467335072169895 0.0022179932840733583" pbc="T T T"
Si       3.12598069       7.93988808       0.22266629
Si      -1.91431400      -0.26307762       7.05718413
Si       0.89696784       8.25971850      -3.16279381
Si      -1.14096074       4.62160512       1.73041798
Si      -0.02959160      -0.88278802       6.30605397
Si       4.60437593      -0.05210665       4.04637264
Si      -0.06564629       1.32442418       1.28523657
Si       0.37261643       1.91343660      -0.70794290
Si       1.07409951      -2.66342586       6.00159594
Si       2.57283266      -0.91347250       9.22350813
Si      -1.12679397       1.01474994       8.55761829
Si       4.75615078       1.47047749       2.50193698
Si       0.07493751       3.11770579       2.41068764
Si       1.68686212      -4.48201135      13.34352813
Si       1.06362185      -1.66830758      10.96550808
Si       4.24497541       6.56032638       1.80733048
Si       1.66884481       0.37753066       0.48756118
Si       2.92915152       2.39527671       8.56833587
Si       1.92474223      -0.76951911       7.14675473
Si       0.06593244      -1.73598916       4.36339621
Si       3.58085617       1.40941275       0.72687163
Si       1.86031993      -1.76809490       1.87024953
22
Lattice="5.780844666509571 -0.00749130781449453 -0.7027134265055396 -0.672597745063285 9.943261756429589 -3.004159705859992 -3.0343254677849334 -7.537132007088675 13.711203115855493" Properties=species:S:1:pos:R:3 unique_starting_index=51 config_type=initial n_minim_iter=21 stress="-0.0010357152146547042 -0.0010505069780181002 -0.0004299030632760121 -0.0010505069780181002 0.002403311366003935 0.001313703277297061 -0.0004299030632760121 0.001313703277297061 0.0014352973606184902" pbc="T T T"
Si       3.10419967       7.95921863       0.14620307
Si      -1.93684624      -0.32701135       7.10608906
Si       0.91977094       8.31446963      -3.24189623
Si      -1.13918696       4.63493459       1.71497798
Si      -0.05000173      -0.90837234       6.32393723
Si       4.57876236      -0.08562545       4.04621948
Si      -0.07181945       1.30992365       1.29774547
Si       0.36660747       1.90503876      -0.68957798
Si       1.04860915      -2.69304866       6.03522919
Si       2.55619856      -0.96450372       9.24163803
Si      -1.16480535       0.97983915       8.58999837
Si       4.76125938       1.43881758       2.49688234
Si       0.03461677       3.10729344       2.41715450
Si       1.63455190      -4.59882615      13.45211010
Si       1.04196135      -1.65840979      11.02923306
Si       4.23188021       6.56979026       1.75720169
Si       1.66530668       0.37339773       0.49302350
Si       2.90542369       2.34959129       8.58709879
Si       1.90793624      -0.82240965       7.16613445
Si       0.03000024      -1.78149523       4.39263624
Si       3.58550371       1.39731207       0.72622601
Si       1.87994803      -1.76062960       1.85844077
