22
Lattice="5.447269522617039 -4.2453148304178014e-35 2.0370207680414274e-22 6.865845486598327e-35 8.814770738812646 1.0488885731852184e-15 -6.000306097103321e-22 -1.9093042792756278e-15 16.045631464302964" Properties=species:S:1:pos:R:3 unique_starting_index=32 config_type=initial n_minim_iter=1 energy=-3581.630565507082 free_energy=-3581.630565507082 pbc="T T T"
Si       1.69878967       0.14627739       8.06618966
Si       3.74847985       8.66849335       8.06618966
Si       1.69878967       4.26110798       0.04337392
Si       3.74847985       4.55366276       0.04337392
Si       5.35669238       3.35279967      15.41355681
Si       0.09057714       5.46197107      15.41355681
Si       5.35669238       1.05458570       7.39074108
Si       0.09057714       7.76018504       7.39074108
Si       3.56679437       3.57892934      12.37137646
Si       1.88047515       5.23584140      12.37137646
Si       3.56679437       0.82845603       4.34856073
Si       1.88047515       7.98631471       4.34856073
Si       1.88655057       5.28399229       9.65775157
Si       3.56071896       3.53077845       9.65775157
Si       1.88655057       7.93816381       1.63493583
Si       3.56071896       0.87660692       1.63493583
Si       1.96168830       0.73744462       2.97140546
Si       3.48558122       8.07732612       2.97140546
Si       1.96168830       3.66994075      10.99422119
Si       3.48558122       5.14482999      10.99422119
Si       2.72363476       4.40738537       1.89480730
Si       2.72363476      -0.00000000       9.91762303
22
Lattice="5.446960613139104 -4.246753306521559e-35 2.04163532498892e-22 6.863530916244109e-35 8.815124094913836 1.0106192146564901e-15 -5.986106994526004e-22 -1.9783904942497796e-15 16.044968347340117" Properties=species:S:1:pos:R:3 unique_starting_index=32 config_type=initial n_minim_iter=2 stress="-0.00025540921743164946 1.0398397521217864e-15 -3.563519441519727e-15 1.0398397521217864e-15 -0.0003576786818235931 -3.140387925373563e-16 -3.563519441519727e-15 -3.140387925373563e-16 -0.00017601225327091072" pbc="T T T"
Si       1.69869642       0.14628241       8.06585613
Si       3.74826420       8.66884168       8.06585613
Si       1.69869642       4.26127964       0.04337196
Si       3.74826420       4.55384446       0.04337196
Si       5.35638879       3.35292888      15.41291865
Si       0.09057183       5.46219522      15.41291865
Si       5.35638879       1.05463317       7.39043448
Si       0.09057183       7.76049092       7.39043448
Si       3.56657751       3.57906933      12.37085856
Si       1.88038310       5.23605477      12.37085856
Si       3.56657751       0.82849272       4.34837438
Si       1.88038310       7.98663137       4.34837438
Si       1.88644135       5.28419962       9.65735273
Si       3.56051927       3.53092448       9.65735273
Si       1.88644135       7.93848653       1.63486855
Si       3.56051927       0.87663757       1.63486855
Si       1.96157719       0.73748108       2.97129193
Si       3.48538342       8.07764302       2.97129193
Si       1.96157719       3.67008097      10.99377611
Si       3.48538342       5.14504313      10.99377611
Si       2.72348031       4.40756205       1.89472582
Si       2.72348031      -0.00000000       9.91720999
22
Lattice="5.446987960744062 -4.2486761789627665e-35 2.0416200286062736e-22 6.861092898537325e-35 8.816020232422039 1.020510823652671e-15 -5.98619222395516e-22 -1.9606905242090133e-15 16.04499532427939" Properties=species:S:1:pos:R:3 unique_starting_index=32 config_type=initial n_minim_iter=3 stress="8.18794013706324e-05 4.388249706820543e-15 -4.3363352863218586e-15 4.388249706820543e-15 0.00011861394736423758 -2.8417309781818875e-16 -4.3363352863218586e-15 -2.8417309781818875e-16 -0.00010488347148801668" pbc="T T T"
Si       1.69871370       0.14629559       8.06586778
Si       3.74827426       8.66972464       8.06586778
Si       1.69871370       4.26171453       0.04337012
Si       3.74827426       4.55430570       0.04337012
Si       5.35641613       3.35325719      15.41294048
Si       0.09057183       5.46276304      15.41294048
Si       5.35641613       1.05475293       7.39044282
Si       0.09057183       7.76126731       7.39044282
Si       3.56657429       3.57942330      12.37087627
Si       1.88041367       5.23659694      12.37087627
Si       3.56657429       0.82858682       4.34837861
Si       1.88041367       7.98743341       4.34837861
Si       1.88644486       5.28472534       9.65736946
Si       3.56054310       3.53129489       9.65736946
Si       1.88644486       7.93930501       1.63487180
Si       3.56054310       0.87671522       1.63487180
Si       1.96157022       0.73757324       2.97130680
Si       3.48541774       8.07844699       2.97130680
Si       1.96157022       3.67043688      10.99380446
Si       3.48541774       5.14558335      10.99380446
Si       2.72349398       4.40801012       1.89472644
Si       2.72349398      -0.00000000       9.91722410
22
Lattice="5.4461614926365325 -4.2482308390084987e-35 2.0382720986448694e-22 6.860651077836532e-35 8.815896652433624 1.0256480008835914e-15 -5.996521388756415e-22 -1.9517255799687957e-15 16.04867398011082" Properties=species:S:1:pos:R:3 unique_starting_index=32 config_type=initial n_minim_iter=4 stress="-0.00016413669376474975 5.981011669077141e-15 -4.4866778466157285e-15 5.981011669077141e-15 0.00010768196661765422 -4.236773561769261e-16 -4.4866778466157285e-15 -4.236773561769261e-16 0.00022672950501353346" pbc="T T T"
Si       1.69850090       0.14626312       8.06767651
Si       3.74766059       8.66963354       8.06767651
Si       1.69850090       4.26168521       0.04333952
Si       3.74766059       4.55421144       0.04333952
Si       5.35559866       3.35319082      15.41644936
Si       0.09056283       5.46270583      15.41644936
Si       5.35559866       1.05475750       7.39211237
Si       0.09056283       7.76113915       7.39211237
Si       3.56588778       3.57928180      12.37372927
Si       1.88027372       5.23661486      12.37372927
Si       3.56588778       0.82866653       4.34939228
Si       1.88027372       7.98723012       4.34939228
Si       1.88610292       5.28453130       9.65959250
Si       3.56005857       3.53136535       9.65959250
Si       1.88610292       7.93931368       1.63525551
Si       3.56005857       0.87658298       1.63525551
Si       1.96115211       0.73761297       2.97203175
Si       3.48500939       8.07828368       2.97203175
Si       1.96115211       3.67033536      10.99636874
Si       3.48500939       5.14556130      10.99636874
Si       2.72308075       4.40794833       1.89515303
Si       2.72308075      -0.00000000       9.91949002
22
Lattice="5.446070007062806 -4.250049968976807e-35 2.0371505283199634e-22 6.855805552134543e-35 8.813629842719212 1.0299966447013327e-15 -6.000211063761037e-22 -1.9434414270235162e-15 16.049972405875813" Properties=species:S:1:pos:R:3 unique_starting_index=32 config_type=initial n_minim_iter=5 stress="1.8791543266775912e-05 6.8508060769615915e-15 -3.381035347524267e-15 6.8508060769615915e-15 -7.49459712581919e-05 -9.877926126168994e-17 -3.381035347524267e-15 -9.877926126168994e-17 -6.848645936806474e-05" pbc="T T T"
Si       1.69870863       0.14613398       8.06831293
Si       3.74736138       8.66749587       8.06831293
Si       1.69870863       4.26068095       0.04332673
Si       3.74736138       4.55294890       0.04332673
Si       5.35550122       3.35224663      15.41758703
Si       0.09056879       5.46138321      15.41758703
Si       5.35550122       1.05456829       7.39260083
Si       0.09056879       7.75906155       7.39260083
Si       3.56539093       3.57807485      12.37480525
Si       1.88067908       5.23555499      12.37480525
Si       3.56539093       0.82874007       4.34981905
Si       1.88067908       7.98488978       4.34981905
Si       1.88589602       5.28278125       9.66041379
Si       3.56017398       3.53084859       9.66041379
Si       1.88589602       7.93766351       1.63542759
Si       3.56017398       0.87596633       1.63542759
Si       1.96076849       0.73749610       2.97238900
Si       3.48530151       8.07613374       2.97238900
Si       1.96076849       3.66931882      10.99737520
Si       3.48530151       5.14431102      10.99737520
Si       2.72303500       4.40681492       1.89509525
Si       2.72303500      -0.00000000       9.92008145
22
Lattice="5.4454661802463 -4.249874319561446e-35 2.0330759242290277e-22 6.854909854475383e-35 8.813075239372875 1.0244490968587126e-15 -6.013355275479114e-22 -1.9539891220891808e-15 16.054795076397166" Properties=species:S:1:pos:R:3 unique_starting_index=32 config_type=initial n_minim_iter=6 stress="-1.8626051476342577e-06 5.063428449448392e-15 -2.661124947059104e-15 5.063428449448392e-15 -3.408502806091155e-05 2.2415469213640158e-17 -2.661124947059104e-15 2.2415469213640158e-17 5.857178424034755e-05" pbc="T T T"
Si       1.69876465       0.14605008       8.07072772
Si       3.74670153       8.66702516       8.07072772
Si       1.69876465       4.26048754       0.04333018
Si       3.74670153       4.55258770       0.04333018
Si       5.35495448       3.35178559      15.42206372
Si       0.09051170       5.46128965      15.42206372
Si       5.35495448       1.05475203       7.39466618
Si       0.09051170       7.75832321       7.39466618
Si       3.56450045       3.57744882      12.37871100
Si       1.88096573       5.23562642      12.37871100
Si       3.56450045       0.82908880       4.35131346
Si       1.88096573       7.98398644       4.35131346
Si       1.88546489       5.28195839       9.66338846
Si       3.56000129       3.53111685       9.66338846
Si       1.88546489       7.93765447       1.63599092
Si       3.56000129       0.87542077       1.63599092
Si       1.96039248       0.73718069       2.97336082
Si       3.48507370       8.07589455       2.97336082
Si       1.96039248       3.66935693      11.00075836
Si       3.48507370       5.14371831      11.00075836
Si       2.72273309       4.40653762       1.89531976
Si       2.72273309      -0.00000000       9.92271730
22
Lattice="5.44475576275521 -4.2485677960469967e-35 2.032623686831173e-22 6.856864126795361e-35 8.814014123254802 1.0236984759619766e-15 -6.0141273547151375e-22 -1.9556313934974495e-15 16.05538284342291" Properties=species:S:1:pos:R:3 unique_starting_index=32 config_type=initial n_minim_iter=7 stress="-8.38410832567139e-05 4.196295589799735e-15 7.39516496643678e-16 4.196295589799735e-15 1.0433221674886e-05 1.7375145712464842e-16 7.39516496643678e-16 1.7375145712464842e-16 1.8276619246842784e-05" pbc="T T T"
Si       1.69834717       0.14595327       8.07089347
Si       3.74640859       8.66806086       8.07089347
Si       1.69834717       4.26105379       0.04320205
Si       3.74640859       4.55296033       0.04320205
Si       5.35434152       3.35209092      15.42252537
Si       0.09041424       5.46192320      15.42252537
Si       5.35434152       1.05491614       7.39483395
Si       0.09041424       7.75909798       7.39483395
Si       3.56357126       3.57729566      12.37958057
Si       1.88118450       5.23671846      12.37958057
Si       3.56357126       0.82971140       4.35188915
Si       1.88118450       7.98430273       4.35188915
Si       1.88494977       5.28198464       9.66386086
Si       3.55980599       3.53202949       9.66386086
Si       1.88494977       7.93903655       1.63616944
Si       3.55980599       0.87497757       1.63616944
Si       1.95976970       0.73692442       2.97345889
Si       3.48498606       8.07708971       2.97345889
Si       1.95976970       3.67008265      11.00115031
Si       3.48498606       5.14393148      11.00115031
Si       2.72237788       4.40700706       1.89480604
Si       2.72237788      -0.00000000       9.92249746
22
Lattice="5.44610008208141 -4.249306943993771e-35 2.033684938793751e-22 6.857686194766125e-35 8.814434762531214 1.0249211501016722e-15 -6.012378720752542e-22 -1.9534682675522763e-15 16.055118667079032" Properties=species:S:1:pos:R:3 unique_starting_index=32 config_type=initial n_minim_iter=8 stress="2.5471460054496066e-05 4.610445966196166e-15 -3.0039102801227597e-16 4.610445966196166e-15 -9.47393663212087e-06 -7.689178420648393e-17 -3.0039102801227597e-16 -7.689178420648393e-17 2.324312084949933e-06" pbc="T T T"
Si       1.69841831       0.14584470       8.07046450
Si       3.74768178       8.66859007       8.07046450
Si       1.69841831       4.26137268       0.04290517
Si       3.74768178       4.55306208       0.04290517
Si       5.35577315       3.35237244      15.42210270
Si       0.09032693       5.46206232      15.42210270
Si       5.35577315       1.05484494       7.39454337
Si       0.09032693       7.75958983       7.39454337
Si       3.56370625       3.57690826      12.37966644
Si       1.88239383       5.23752650      12.37966644
Si       3.56370625       0.83030912       4.35210710
Si       1.88239383       7.98412564       4.35210710
Si       1.88512654       5.28175958       9.66382692
Si       3.56097354       3.53267518       9.66382692
Si       1.88512654       7.93989256       1.63626759
Si       3.56097354       0.87454220       1.63626759
Si       1.96010384       0.73656879       2.97365962
Si       3.48599624       8.07786597       2.97365962
Si       1.96010384       3.67064859      11.00121896
Si       3.48599624       5.14378617      11.00121896
Si       2.72305004       4.40721738       1.89437644
Si       2.72305004      -0.00000000       9.92193578
22
Lattice="5.4456355731185075 -4.2468255665794467e-35 2.0337339344383892e-22 6.863078790960621e-35 8.816894251102513 1.0134370473201862e-15 -6.011766605148405e-22 -1.974930766959107e-15 16.055231298275242" Properties=species:S:1:pos:R:3 unique_starting_index=32 config_type=initial n_minim_iter=9 stress="-1.712908531134827e-05 4.336634621516532e-15 -3.1327265657471516e-15 4.336634621516532e-15 2.822084099040147e-05 6.24561294743852e-17 -3.1327265657471516e-15 6.24561294743852e-17 2.155357370968189e-05" pbc="T T T"
Si       1.69858418       0.14552425       8.06988617
Si       3.74705140       8.67137000       8.06988617
Si       1.69858418       4.26292287       0.04227052
Si       3.74705140       4.55397138       0.04227052
Si       5.35551461       3.35380620      15.42153076
Si       0.09012096       5.46308806      15.42153076
Si       5.35551461       1.05464093       7.39391512
Si       0.09012096       7.76225332       7.39391512
Si       3.56278151       3.57733019      12.38069019
Si       1.88285407       5.23956406      12.38069019
Si       3.56278151       0.83111693       4.35307454
Si       1.88285407       7.98577732       4.35307454
Si       1.88487325       5.28356417       9.66409257
Si       3.56076232       3.53333008       9.66409257
Si       1.88487325       7.94177720       1.63647692
Si       3.56076232       0.87511705       1.63647692
Si       1.95967363       0.73630021       2.97412273
Si       3.48596195       8.08059405       2.97412273
Si       1.95967363       3.67214692      11.00173838
Si       3.48596195       5.14474733      11.00173838
Si       2.72281779       4.40844713       1.89386588
Si       2.72281779      -0.00000000       9.92148153
22
Lattice="5.445820039126262 -4.2475753470543277e-35 2.041494527866226e-22 6.861452897114868e-35 8.816028575307833 1.009148809071216e-15 -5.986184892709303e-22 -1.981648280591842e-15 16.04743679851272" Properties=species:S:1:pos:R:3 unique_starting_index=32 config_type=initial n_minim_iter=10 stress="-2.9730971402927808e-05 3.8115097585403465e-15 -1.6532869279379563e-15 3.8115097585403465e-15 1.550080448122649e-05 -1.8258551412652663e-16 -1.6532869279379563e-15 -1.8258551412652663e-16 -4.2552738841362144e-05" pbc="T T T"
Si       1.69877013       0.14477733       8.06429116
Si       3.74704991       8.67125125       8.06429116
Si       1.69877013       4.26323696       0.04057276
Si       3.74704991       4.55279162       0.04057276
Si       5.35607692       3.35312634      15.41265477
Si       0.08974311       5.46290224      15.41265477
Si       5.35607692       1.05488795       7.38893637
Si       0.08974311       7.76114062       7.38893637
Si       3.56180807       3.57634967      12.37642204
Si       1.88401197       5.23967890      12.37642204
Si       3.56180807       0.83166461       4.35270364
Si       1.88401197       7.98436396       4.35270364
Si       1.88532675       5.28369697       9.66001215
Si       3.56049329       3.53233160       9.66001215
Si       1.88532675       7.94034589       1.63629375
Si       3.56049329       0.87568269       1.63629375
Si       1.95892320       0.73542817       2.97357156
Si       3.48689684       8.08060041       2.97357156
Si       1.95892320       3.67258612      10.99728996
Si       3.48689684       5.14344246      10.99728996
Si       2.72291002       4.40801429       1.89258631
Si       2.72291002      -0.00000000       9.91630471
22
Lattice="5.445706958683907 -4.250056729670657e-35 2.0363149255970413e-22 6.854589653932577e-35 8.812534892232364 1.0012376398722816e-15 -6.003345719217687e-22 -1.9958810281095116e-15 16.052841379444466" Properties=species:S:1:pos:R:3 unique_starting_index=32 config_type=initial n_minim_iter=11 stress="3.0159747042256804e-05 5.022770843274956e-15 -1.0717088061897742e-15 5.022770843274956e-15 -1.512855130494327e-05 -4.354689936039149e-16 -1.0717088061897742e-15 -4.354689936039149e-16 -6.417372462772351e-06" pbc="T T T"
Si       1.69855928       0.14390434       8.06576606
Si       3.74714768       8.66863056       8.06576606
Si       1.69855928       4.26236311       0.03934537
Si       3.74714768       4.55017178       0.03934537
Si       5.35710914       3.35132634      15.41626152
Si       0.08859782       5.46120855      15.41626152
Si       5.35710914       1.05494110       7.38984083
Si       0.08859782       7.75759379       7.38984083
Si       3.56012507       3.57438570      12.38244954
Si       1.88558189       5.23814919      12.38244954
Si       3.56012507       0.83188175       4.35602885
Si       1.88558189       7.98065315       4.35602885
Si       1.88658706       5.28248582       9.66404368
Si       3.55911990       3.53004907       9.66404368
Si       1.88658706       7.93631652       1.63762299
Si       3.55911990       0.87621837       1.63762299
Si       1.95828462       0.73484612       2.97572356
Si       3.48742234       8.07768877       2.97572356
Si       1.95828462       3.67142132      11.00214425
Si       3.48742234       5.14111357      11.00214425
Si       2.72285348       4.40626745       1.89129798
Si       2.72285348      -0.00000000       9.91771867
22
Lattice="5.445768513270798 -4.2533280208589563e-35 2.0246530719461256e-22 6.845868857581467e-35 8.808001085592766 9.869156067165117e-16 -6.042511893683375e-22 -2.0223674549663107e-15 16.065492876583402" Properties=species:S:1:pos:R:3 unique_starting_index=32 config_type=initial n_minim_iter=12 stress="0.00016401956177784733 4.386371642803419e-15 -2.1225348171958737e-15 4.386371642803419e-15 -9.587943977862805e-06 -6.026082295138951e-16 -2.1225348171958737e-15 -6.026082295138951e-16 7.73881652699929e-05" pbc="T T T"
Si       1.69814318       0.14155678       8.07023543
Si       3.74762533       8.66644430       8.07023543
Si       1.69814318       4.26244376       0.03748899
Si       3.74762533       4.54555733       0.03748899
Si       5.35787071       3.34879294      15.42582515
Si       0.08789780       5.45920814      15.42582515
Si       5.35787071       1.05520760       7.39307871
Si       0.08789780       7.75279348       7.39307871
Si       3.55747636       3.57174281      12.39519770
Si       1.88829216       5.23625828      12.39519770
Si       3.55747636       0.83225774       4.36245126
Si       1.88829216       7.97574335       4.36245126
Si       1.88893045       5.28123544       9.67302268
Si       3.55683806       3.52676564       9.67302268
Si       1.88893045       7.93076619       1.64027624
Si       3.55683806       0.87723490       1.64027624
Si       1.95753490       0.73397064       2.98000288
Si       3.48823362       8.07403045       2.98000288
Si       1.95753490       3.67002990      11.01274932
Si       3.48823362       5.13797118      11.01274932
Si       2.72288426       4.40400054       1.88916351
Si       2.72288426      -0.00000000       9.92190995
22
Lattice="5.44553836978894 -4.251675028547526e-35 2.0271592661936896e-22 6.849597995017944e-35 8.809653290552273 9.734122042252684e-16 -6.034157503558777e-22 -2.047111271461547e-15 16.06357603661758" Properties=species:S:1:pos:R:3 unique_starting_index=32 config_type=initial n_minim_iter=13 stress="8.442264374694503e-06 4.586332506658479e-15 -2.7039718755764716e-15 4.586332506658479e-15 -4.275131107975022e-06 -6.123802128156088e-16 -2.7039718755764716e-15 -6.123802128156088e-16 -1.8352968500820868e-06" pbc="T T T"
Si       1.69816221       0.14185228       8.06960657
Si       3.74737616       8.66780101       8.06960657
Si       1.69816221       4.26297437       0.03781855
Si       3.74737616       4.54667892       0.03781855
Si       5.35765300       3.34965727      15.42437450
Si       0.08788537       5.45999602      15.42437450
Si       5.35765300       1.05516937       7.39258648
Si       0.08788537       7.75448392       7.39258648
Si       3.55792134       3.57275715      12.39304531
Si       1.88761703       5.23689614      12.39304531
Si       3.55792134       0.83206949       4.36125729
Si       1.88761703       7.97758380       4.36125729
Si       1.88839461       5.28186344       9.67178431
Si       3.55714376       3.52778985       9.67178431
Si       1.88839461       7.93261650       1.63999629
Si       3.55714376       0.87703679       1.63999629
Si       1.95751894       0.73408213       2.97935110
Si       3.48801943       8.07557116       2.97935110
Si       1.95751894       3.67074452      11.01113912
Si       3.48801943       5.13890877      11.01113912
Si       2.72276918       4.40482665       1.88959817
Si       2.72276918      -0.00000000       9.92138619
22
Lattice="5.44486653523109 -4.249262519411577e-35 2.0257608661221537e-22 6.854619206253836e-35 8.812189679998866 9.767834085625979e-16 -6.03850831578887e-22 -2.041846970514297e-15 16.066154992634747" Properties=species:S:1:pos:R:3 unique_starting_index=32 config_type=initial n_minim_iter=14 stress="-0.00015902210615160612 5.10739694607729e-15 -1.437437099898275e-15 5.10739694607729e-15 5.126833057080561e-06 -7.598302063595291e-16 -1.437437099898275e-15 -7.598302063595291e-16 -7.598660835571872e-05" pbc="T T T"
Si       1.69797475       0.14112706       8.07083221
Si       3.74689179       8.67106262       8.07083221
Si       1.69797475       4.26496778       0.03775472
Si       3.74689179       4.54722190       0.03775472
Si       5.35762843       3.35090993      15.42639516
Si       0.08723811       5.46127975      15.42639516
Si       5.35762843       1.05518491       7.39331767
Si       0.08723811       7.75700477       7.39331767
Si       3.55780034       3.57448292      12.39461652
Si       1.88706620       5.23770676      12.39461652
Si       3.55780034       0.83161192       4.36153902
Si       1.88706620       7.98057776       4.36153902
Si       1.88798321       5.28300525       9.67408870
Si       3.55688333       3.52918443       9.67408870
Si       1.88798321       7.93527927       1.64101120
Si       3.55688333       0.87691041       1.64101120
Si       1.95698408       0.73388396       2.98011526
Si       3.48788245       8.07830572       2.98011526
Si       1.95698408       3.67221088      11.01319276
Si       3.48788245       5.13997880      11.01319276
Si       2.72243327       4.40609484       1.88971470
Si       2.72243327      -0.00000000       9.92279220
22
Lattice="5.444451356785519 -4.249609030214186e-35 2.0163045759871792e-22 6.852498165733163e-35 8.810773578924307 9.5438562604886e-16 -6.07054340514104e-22 -2.0836610584805105e-15 16.07848760185076" Properties=species:S:1:pos:R:3 unique_starting_index=32 config_type=initial n_minim_iter=15 stress="7.878318129696455e-05 5.557972038204084e-15 -3.3853423633404333e-15 5.557972038204084e-15 1.410935591992603e-05 -4.995209691078888e-16 -3.3853423633404333e-15 -4.995209691078888e-16 3.697914637095453e-05" pbc="T T T"
Si       1.69749608       0.13807520       8.07560815
Si       3.74695527       8.67269838       8.07560815
Si       1.69749608       4.26731159       0.03636435
Si       3.74695527       4.54346199       0.03636435
Si       5.35878841       3.34999821      15.43560956
Si       0.08566295       5.46077537      15.43560956
Si       5.35878841       1.05538858       7.39636576
Si       0.08566295       7.75538500       7.39636576
Si       3.55614132       3.57404344      12.40575913
Si       1.88831004       5.23673014      12.40575913
Si       3.55614132       0.83134335       4.36651533
Si       1.88831004       7.97943023       4.36651533
Si       1.88889657       5.28274131       9.68363877
Si       3.55555478       3.52803227       9.68363877
Si       1.88889657       7.93341906       1.64439497
Si       3.55555478       0.87735452       1.64439497
Si       1.95613943       0.73320722       2.98412746
Si       3.48831192       8.07756636       2.98412746
Si       1.95613943       3.67217957      11.02337126
Si       3.48831192       5.13859401      11.02337126
Si       2.72222568       4.40538679       1.88830411
Si       2.72222568      -0.00000000       9.92754791
22
Lattice="5.44449518979654 -4.2505154508661877e-35 2.0175540565497166e-22 6.849790100185269e-35 8.808958139638891 9.232350034496376e-16 -6.068055982618302e-22 -2.14026119081219e-15 16.081528788324306" Properties=species:S:1:pos:R:3 unique_starting_index=32 config_type=initial n_minim_iter=16 stress="-3.043098291314511e-05 5.706259222673987e-15 -1.5977485343586106e-16 5.706259222673987e-15 -3.0020095135536168e-05 -5.60140328510804e-16 -1.5977485343586106e-16 -5.60140328510804e-16 3.688540319300665e-06" pbc="T T T"
Si       1.69715003       0.13539911       8.07656397
Si       3.74734516       8.67355903       8.07656397
Si       1.69715003       4.26907996       0.03579958
Si       3.74734516       4.53987818       0.03579958
Si       5.36053817       3.34892913      15.43686585
Si       0.08395702       5.46002901      15.43686585
Si       5.36053817       1.05554994       7.39610145
Si       0.08395702       7.75340820       7.39610145
Si       3.55647997       3.57313115      12.40856612
Si       1.88801522       5.23582699      12.40856612
Si       3.55647997       0.83134792       4.36780173
Si       1.88801522       7.97761022       4.36780173
Si       1.88802870       5.28165937       9.68702101
Si       3.55646648       3.52729877       9.68702101
Si       1.88802870       7.93177784       1.64625662
Si       3.55646648       0.87718030       1.64625662
Si       1.95651219       0.73357239       2.98536487
Si       3.48798300       8.07538575       2.98536487
Si       1.95651219       3.67090668      11.02612926
Si       3.48798300       5.13805146      11.02612926
Si       2.72224759       4.40447907       1.88776301
Si       2.72224759      -0.00000000       9.92852740
