10
Lattice="5.436223554566095 -0.4175089497970635 -0.017377112823243824 -0.057344920982986027 5.405487958267311 -0.6494163466737913 0.3202079272304191 1.9357448680064264 6.496454530081812" Properties=species:S:1:pos:R:3 unique_starting_index=87 config_type=initial n_minim_iter=1 energy=-1629.0828788694446 free_energy=-1629.0828788694446 pbc="T T T"
Si       2.43722230       5.44096812       3.56251354
Si       1.86673846       2.28908255       3.87692579
Si       4.05985257       3.18086454       1.17045034
Si       0.94697976       3.60770571       0.72402945
Si       1.77735485       1.30778175       5.76168020
Si       1.71281390       1.51253651      -0.83215624
Si       5.22958308       6.01839201       5.94585199
Si       2.34216605       3.67605232       2.32546954
Si       3.01806464       5.30954961       6.04669471
Si       5.58169286       3.12326781       4.02249340
10
Lattice="5.436962646130297 -0.41814649280960425 -0.015214272035809539 -0.05826267303568515 5.405223068188119 -0.6485711521976808 0.3226522121359063 1.936391367005125 6.494407059043685" Properties=species:S:1:pos:R:3 unique_starting_index=87 config_type=initial n_minim_iter=2 stress="-0.003747170538992737 -1.1258796173897738e-05 0.003669959868594154 -1.1258796173897738e-05 -0.0020931638921260526 0.0006888340058635501 0.003669959868594154 0.0006888340058635501 -0.0028783506866323846" pbc="T T T"
Si       2.43823187       5.44088137       3.56291027
Si       1.86840464       2.28909569       3.87631710
Si       4.06034607       3.18044946       1.17198146
Si       0.94699116       3.60761834       0.72428565
Si       1.77992821       1.30832930       5.76020232
Si       1.71247811       1.51224057      -0.83087562
Si       5.23177671       6.01804547       5.94667135
Si       2.34314873       3.67589768       2.32613756
Si       3.02022619       5.30967354       6.04645006
Si       5.58362615       3.12300362       4.02368953
10
Lattice="5.439150585497116 -0.41864276002988476 -0.015386251067001418 -0.05869727983275635 5.406017208425014 -0.6484464286152875 0.3224295326642046 1.936792540166886 6.49436541673427" Properties=species:S:1:pos:R:3 unique_starting_index=87 config_type=initial n_minim_iter=3 stress="0.004367130176779197 -0.0010722229745044412 0.0022906841422118923 -0.0010722229745044412 -8.483778811230186e-05 0.0010117734199522445 0.0022906841422118923 0.0010117734199522445 0.0006855274873631157" pbc="T T T"
Si       2.43854095       5.44152067       3.56300237
Si       1.86900391       2.28919565       3.87595588
Si       4.06145490       3.18061201       1.17192113
Si       0.94700819       3.60822529       0.72409375
Si       1.78060853       1.30864772       5.75993344
Si       1.71300921       1.51240451      -0.83074301
Si       5.23301967       6.01844176       5.94672947
Si       2.34387041       3.67634305       2.32624892
Si       3.02088892       5.31033302       6.04652438
Si       5.58542405       3.12316844       4.02362360
10
Lattice="5.438129308306636 -0.4185328540709841 -0.01668862439375593 -0.05834670700947439 5.407006071566932 -0.6487635064548478 0.3208262363053433 1.9365361098807008 6.492424056450463" Properties=species:S:1:pos:R:3 unique_starting_index=87 config_type=initial n_minim_iter=4 stress="0.0008116762594257666 0.000642665637691655 -0.00043450085595389104 0.000642665637691655 -0.0003897692241856722 0.000998272410355365 -0.00043450085595389104 0.000998272410355365 -0.0036461968639307438" pbc="T T T"
Si       2.43710977       5.44207171       3.56117903
Si       1.86808912       2.28893399       3.87356106
Si       4.05992018       3.18111733       1.17042625
Si       0.94681623       3.60913878       0.72286420
Si       1.77936429       1.30859831       5.75767013
Si       1.71282419       1.51301795      -0.83078192
Si       5.23065140       6.01866801       5.94352991
Si       2.34327197       3.67695082       2.32484601
Si       3.01904618       5.31082712       6.04399802
Si       5.58344944       3.12362220       4.02110142
10
Lattice="5.437137076283689 -0.4191068391985729 -0.016349112472342883 -0.05889451599283451 5.407736187801229 -0.6497180574792369 0.32091547415630195 1.9357812061242343 6.493775348043063" Properties=species:S:1:pos:R:3 unique_starting_index=87 config_type=initial n_minim_iter=5 stress="-0.00010451991521610336 0.0008722310032971058 0.002027580834856729 0.0008722310032971058 0.0015657752523148688 -0.0009924160646205226 0.002027580834856729 -0.0009924160646205226 0.001034628692461686" pbc="T T T"
Si       2.43608024       5.44178761       3.56153501
Si       1.86795564       2.28818197       3.87370980
Si       4.05857238       3.18080772       1.17074136
Si       0.94636793       3.60963435       0.72223838
Si       1.77939780       1.30790919       5.75898641
Si       1.71220214       1.51331329      -0.83088759
Si       5.22944966       6.01767970       5.94440884
Si       2.34278903       3.67694291       2.32510794
Si       3.01818648       5.31032428       6.04489434
Si       5.58229439       3.12291881       4.02210225
10
Lattice="5.43612867909194 -0.42175854956908726 -0.01749331819843601 -0.06154131227472556 5.405655469216269 -0.6489677339675174 0.31854607264890106 1.935790025818751 6.494059250339025" Properties=species:S:1:pos:R:3 unique_starting_index=87 config_type=initial n_minim_iter=6 stress="-0.00037295078769440773 -0.0007868341016294002 0.0003828135500293814 -0.0007868341016294002 -0.002155405881577596 0.001006611573124035 0.0003828135500293814 0.001006611573124035 0.000972290661210802" pbc="T T T"
Si       2.43150420       5.43855354       3.56211482
Si       1.86607163       2.28632785       3.87274393
Si       4.05548229       3.17739628       1.17093287
Si       0.94416670       3.60856821       0.72226426
Si       1.77742216       1.30780139       5.75888908
Si       1.71090779       1.51193958      -0.83066498
Si       5.22427792       6.01279926       5.94423531
Si       2.33995217       3.67503893       2.32536028
Si       3.01343831       5.30786935       6.04461502
Si       5.57871392       3.11950186       4.02186080
10
Lattice="5.43593238508974 -0.42501528562499175 -0.017823453704122513 -0.06444323508676969 5.4095508132820305 -0.6503054981434124 0.31688204635059086 1.9347361389513018 6.488636228901587" Properties=species:S:1:pos:R:3 unique_starting_index=87 config_type=initial n_minim_iter=7 stress="0.00021319580224083917 -0.0006511475298866114 -0.00017956545962659483 -0.0006511475298866114 0.00025937531694897114 -0.0008940601213844323 -0.00017956545962659483 -0.0008940601213844323 -0.0010659958148573473" pbc="T T T"
Si       2.42664408       5.43883874       3.55844595
Si       1.86516178       2.28424993       3.86775291
Si       4.05303281       3.17621550       1.16982204
Si       0.94248275       3.61178760       0.72029900
Si       1.77656205       1.30682716       5.75381737
Si       1.70892217       1.51194310      -0.83050769
Si       5.22054413       6.01019917       5.93707963
Si       2.33736444       3.67662811       2.32225015
Si       3.00979484       5.30908180       6.03675039
Si       5.57680746       3.11709717       4.01833636
10
Lattice="5.434910677310123 -0.42494582876365833 -0.017836932267340753 -0.06428348658425713 5.410521197512195 -0.6491261714746346 0.3169792842387496 1.936631834568145 6.489638009382635" Properties=species:S:1:pos:R:3 unique_starting_index=87 config_type=initial n_minim_iter=8 stress="-0.0002091404998059009 0.0014836638728968105 -0.0003795890887765808 0.0014836638728968105 0.0013915189837350466 0.0017829489302031416 -0.0003795890887765808 0.0017829489302031416 0.00016430972573589568" pbc="T T T"
Si       2.42554502       5.44031340       3.56066498
Si       1.86514246       2.28528583       3.86798875
Si       4.05219038       3.17691884       1.17066669
Si       0.94257588       3.61364013       0.72091270
Si       1.77674863       1.30887013       5.75491271
Si       1.70793280       1.51188436      -0.83032311
Si       5.21981432       6.01176597       5.93877671
Si       2.33713587       3.67873549       2.32384900
Si       3.00968458       5.31266297       6.03783504
Si       5.57671239       3.11844849       4.02009674
10
Lattice="5.433500385355306 -0.42817267735093406 -0.01776325402275768 -0.06759309103322786 5.4092317780872285 -0.6516432498251946 0.31554796757722864 1.9329023028249155 6.489376195032355" Properties=species:S:1:pos:R:3 unique_starting_index=87 config_type=initial n_minim_iter=9 stress="0.000658699357890113 0.0011298994565630592 -0.000867930202840816 0.0011298994565630592 -0.0020929039920084117 -0.0016574990802238029 -0.000867930202840816 -0.0016574990802238029 5.9782168484803005e-05" pbc="T T T"
Si       2.41949925       5.43456893       3.55997224
Si       1.86325338       2.28119981       3.86638437
Si       4.04820247       3.17224582       1.16857216
Si       0.94066508       3.61341048       0.71894950
Si       1.77586655       1.30573663       5.75526151
Si       1.70525538       1.51057902      -0.83164332
Si       5.21391804       6.00168584       5.93556848
Si       2.33426123       3.67670708       2.32349560
Si       3.00614045       5.30784418       6.03498585
Si       5.57492149       3.11119999       4.02024474
10
Lattice="5.431005323477562 -0.4334852293596118 -0.018226313744021772 -0.0725280295290895 5.412644706828395 -0.6504473638331575 0.3131585648515482 1.9354644617064902 6.491210714996208" Properties=species:S:1:pos:R:3 unique_starting_index=87 config_type=initial n_minim_iter=10 stress="-0.0009869774073513924 -0.0012286475031445196 -0.001442853981070596 -0.0012286475031445196 0.002724297554333146 -7.053563220553846e-05 -0.001442853981070596 -7.053563220553846e-05 0.0006426918092411603" pbc="T T T"
Si       2.41122880       5.43600974       3.56341364
Si       1.85999710       2.28133236       3.86722746
Si       4.04193000       3.17020585       1.16873057
Si       0.93788053       3.61671709       0.71980638
Si       1.77368665       1.30743496       5.75701549
Si       1.70204982       1.51018977      -0.83213676
Si       5.20463737       6.00010680       5.93669750
Si       2.32963266       3.67860416       2.32539544
Si       2.99979720       5.31090819       6.03663283
Si       5.57078123       3.10794170       4.02275623
10
Lattice="5.428819983915662 -0.4417472031747945 -0.01907035990951019 -0.08059525474665583 5.412832417243927 -0.6474011764747578 0.309400303124053 1.9393953645833537 6.497207449965723" Properties=species:S:1:pos:R:3 unique_starting_index=87 config_type=initial n_minim_iter=11 stress="0.0005783914536848948 0.0004775971750110335 -0.0019617592304358947 0.0004775971750110335 5.782182843334776e-05 -9.042658630195912e-05 -0.0019617592304358947 -9.042658630195912e-05 0.0025427257098670324" pbc="T T T"
Si       2.39610797       5.43396745       3.57459873
Si       1.85540271       2.27950481       3.87121780
Si       4.03104518       3.16309677       1.17088248
Si       0.93538023       3.62122078       0.72219841
Si       1.77244403       1.31100348       5.76217256
Si       1.69667489       1.50942471      -0.83408035
Si       5.19027778       5.99052006       5.94009034
Si       2.32376157       3.67943526       2.33061726
Si       2.98972931       5.31329100       6.04094778
Si       5.56886047       3.09887962       4.03092793
10
Lattice="5.430677789781127 -0.4492232450900808 -0.01966384112325349 -0.0875819490784971 5.417930011858777 -0.6460631977137322 0.3063338484769814 1.9420538597093033 6.494472291069587" Properties=species:S:1:pos:R:3 unique_starting_index=87 config_type=initial n_minim_iter=12 stress="0.0008436484931405628 0.00015485189093844334 -0.0015651620251019463 0.00015485189093844334 0.0015538749103565746 -0.00038351646327373966 -0.0015651620251019463 -0.00038351646327373966 0.0018171115708532754" pbc="T T T"
Si       2.38478221       5.43632692       3.57855926
Si       1.85339769       2.27949334       3.86956951
Si       4.02427924       3.15992870       1.16998095
Si       0.93225765       3.62912207       0.72135083
Si       1.77093130       1.31191342       5.76120416
Si       1.69389950       1.51099878      -0.83677936
Si       5.18348098       5.98441208       5.93494753
Si       2.32076971       3.68140586       2.33146240
Si       2.98307299       5.31663403       6.03552246
Si       5.57051608       3.09235054       4.03228296
10
Lattice="5.4351894932546765 -0.4550686698031713 -0.02168758571562953 -0.09292718225514877 5.421483160266305 -0.646035022886412 0.3021528761369159 1.9428112336336751 6.492908261934547" Properties=species:S:1:pos:R:3 unique_starting_index=87 config_type=initial n_minim_iter=13 stress="0.0016398208344265309 -0.000703822084495503 -0.0017134792122690484 -0.000703822084495503 0.0021626192903399957 -0.0009417141282666405 -0.0017134792122690484 -0.0009417141282666405 0.0013767679839239231" pbc="T T T"
Si       2.37584516       5.43640075       3.58041589
Si       1.85239594       2.27854527       3.86828137
Si       4.02096959       3.15711186       1.16716441
Si       0.93237052       3.63609517       0.71905618
Si       1.76895560       1.31254085       5.76189923
Si       1.69309329       1.51195627      -0.84120100
Si       5.17902453       5.97629560       5.92965359
Si       2.31838796       3.68237884       2.33113472
Si       2.97560462       5.31774062       6.03073469
Si       5.57386048       3.08581703       4.03222118
10
Lattice="5.437952125753676 -0.45424120677272556 -0.02157943795743929 -0.09231845842794283 5.419195743018891 -0.6448846362896762 0.3028371601950466 1.9439118831898201 6.497019355696702" Properties=species:S:1:pos:R:3 unique_starting_index=87 config_type=initial n_minim_iter=14 stress="0.001170657472605455 -0.0003003691112861659 -0.0009302901186916387 -0.0003003691112861659 0.0006501248415941184 -0.0004913715476530336 -0.0009302901186916387 -0.0004913715476530336 0.0007812286849391567" pbc="T T T"
Si       2.37511717       5.43494385       3.58640301
Si       1.85530505       2.27794196       3.87188081
Si       4.02047273       3.15700906       1.16826540
Si       0.93572761       3.63993748       0.72015315
Si       1.76936037       1.31673962       5.76691758
Si       1.69373588       1.51141005      -0.84454362
Si       5.18315639       5.97115460       5.93333195
Si       2.32095055       3.68230741       2.33395570
Si       2.97790150       5.31790978       6.03435019
Si       5.57955900       3.08442590       4.03764344
10
Lattice="5.441116383883088 -0.4502131435625244 -0.019069160586093415 -0.08896033079486065 5.4150566746243145 -0.6436385863302992 0.30760431347260514 1.9453975852836674 6.507181630168007" Properties=species:S:1:pos:R:3 unique_starting_index=87 config_type=initial n_minim_iter=15 stress="0.0005447088515347118 -0.0003320644666126954 0.0013491704059747996 -0.0003320644666126954 -0.0018940484071687305 -3.2024382978118325e-05 0.0013491704059747996 -3.2024382978118325e-05 -0.0001993784465670742" pbc="T T T"
Si       2.37697738       5.43436325       3.59982309
Si       1.86340915       2.27695752       3.87814489
Si       4.02194965       3.15964642       1.17076245
Si       0.94453301       3.64698797       0.72547515
Si       1.77264463       1.32187408       5.77811673
Si       1.69578537       1.51195548      -0.84927675
Si       5.19354794       5.96440220       5.94459116
Si       2.32530774       3.68241281       2.34120986
Si       2.98645654       5.31855761       6.04397448
Si       5.58972830       3.08462632       4.05061377
10
Lattice="5.44117762742943 -0.4457512446053404 -0.018829430374294156 -0.08448810142301953 5.41585531525243 -0.6425420472603257 0.309734002405671 1.9483094946224866 6.515676242366029" Properties=species:S:1:pos:R:3 unique_starting_index=87 config_type=initial n_minim_iter=16 stress="0.0003180228100759322 -4.494611356779051e-05 0.0015922533821731287 -4.494611356779051e-05 -0.002019711096163382 0.0004315056172218742 0.0015922533821731287 0.0004315056172218742 -0.00033149036637631973" pbc="T T T"
Si       2.37692122       5.43764250       3.60986156
Si       1.86935451       2.27650979       3.88451706
Si       4.02167856       3.16566019       1.17113061
Si       0.95229800       3.65815293       0.72927432
Si       1.77258894       1.32746692       5.78488699
Si       1.69880803       1.51480780      -0.85459367
Si       5.20031706       5.96471319       5.95074509
Si       2.32768871       3.68746802       2.35069211
Si       2.99050357       5.32369842       6.05085244
Si       5.59450057       3.08829570       4.05970080
10
Lattice="5.435486817907815 -0.4435580689191001 -0.017909469492968667 -0.0815053826620329 5.426952552717112 -0.6426891444700265 0.31168113763863414 1.9532248561971468 6.523340615434406" Properties=species:S:1:pos:R:3 unique_starting_index=87 config_type=initial n_minim_iter=17 stress="0.002763212330924074 -0.0005924521354742537 0.00073917386567126 -0.0005924521354742537 0.0004121073226010643 0.0001183828802158085 0.00073917386567126 0.0001183828802158085 -0.0007093012672138646" pbc="T T T"
Si       2.36891782       5.44489639       3.61945278
Si       1.87619164       2.27751369       3.88947238
Si       4.01070082       3.18046369       1.17097342
Si       0.96192402       3.68710988       0.73732021
Si       1.77176157       1.33552037       5.79215371
Si       1.70304937       1.52030797      -0.86607615
Si       5.19721771       5.96635608       5.95354882
Si       2.32860425       3.69864878       2.36561399
Si       2.98881985       5.33577898       6.05045044
Si       5.59429293       3.09125842       4.07045614
10
Lattice="5.427517678958944 -0.4479683709657872 -0.021089617169294424 -0.08475356904850236 5.435645322860879 -0.640938082644525 0.30641059243336644 1.960012295959705 6.538475866124824" Properties=species:S:1:pos:R:3 unique_starting_index=87 config_type=initial n_minim_iter=18 stress="0.005875551723365089 -0.0009086621801131112 -0.001918474722370735 -0.0009086621801131112 0.0019417989220691786 0.000519185197510075 -0.001918474722370735 0.000519185197510075 0.0029048869652252784" pbc="T T T"
Si       2.35075698       5.45220021       3.63715019
Si       1.87380653       2.27922870       3.89659852
Si       3.99424728       3.18829193       1.17174089
Si       0.96494756       3.71375041       0.74383662
Si       1.76509535       1.34380437       5.80316669
Si       1.70562408       1.51694926      -0.87771246
Si       5.18112833       5.96459503       5.96236605
Si       2.32098929       3.70462897       2.38152946
Si       2.97416272       5.34495298       6.05976670
Si       5.58513678       3.08789925       4.08123547
10
Lattice="5.412359740870775 -0.45797640232772596 -0.025843448194314545 -0.09299916121175161 5.448289097696878 -0.6387469717621853 0.29717539799161163 1.9704296810771662 6.57046054116164" Properties=species:S:1:pos:R:3 unique_starting_index=87 config_type=initial n_minim_iter=19 stress="0.00985235549446331 -0.0016533222745650448 -0.006710444411925539 -0.0016533222745650448 0.005405042840356277 -0.001731403714531362 -0.006710444411925539 -0.001731403714531362 0.013773089637081059" pbc="T T T"
Si       2.31681370       5.46088210       3.67175027
Si       1.86632996       2.27540367       3.91425779
Si       3.96376605       3.20033994       1.17232345
Si       0.96700004       3.75991684       0.75526561
Si       1.75287366       1.35408518       5.82858993
Si       1.71104281       1.50939445      -0.89683941
Si       5.14949364       5.95591186       5.98621783
Si       2.30746786       3.71618102       2.40721052
Si       2.94557220       5.35648083       6.08136376
Si       5.56683467       3.07756212       4.10324607
10
Lattice="5.4063137636834355 -0.47346817860770535 -0.03159517786949744 -0.10632870401949439 5.465022322796825 -0.6266626309015844 0.2864622280012198 1.9951339541132365 6.612844130944602" Properties=species:S:1:pos:R:3 unique_starting_index=87 config_type=initial n_minim_iter=20 stress="0.024627605306102928 -0.0035055086613699675 -0.011453625705058687 -0.0035055086613699675 0.006026448176540446 -0.004228851870925177 -0.011453625705058687 -0.004228851870925177 0.03342212421946466" pbc="T T T"
Si       2.26943959       5.47362962       3.73187176
Si       1.86195771       2.26989750       3.93571075
Si       3.92168853       3.22430122       1.17848768
Si       0.98083480       3.84783309       0.78014537
Si       1.73853847       1.37414064       5.86351362
Si       1.73354339       1.48933731      -0.92691926
Si       5.12032716       5.94652594       6.01848055
Si       2.29514595       3.73921920       2.45474599
Si       2.91030835       5.38166345       6.11565329
Si       5.55933532       3.06106646       4.13704161
10
Lattice="5.403462145681115 -0.4780963740997621 -0.0397554378793148 -0.10849193657142352 5.482923134347129 -0.6081809551875708 0.27739072898673595 2.0265804817253974 6.638220678701884" Properties=species:S:1:pos:R:3 unique_starting_index=87 config_type=initial n_minim_iter=21 stress="0.014010420976669352 0.0003476671584046628 -0.009768292970643027 0.0003476671584046628 -0.0035637842521879454 -0.004470519712195404 -0.009768292970643027 -0.004470519712195404 0.028719521741216187" pbc="T T T"
Si       2.24653255       5.49496053       3.77560724
Si       1.84648428       2.27296118       3.94257225
Si       3.89616415       3.26885705       1.19136527
Si       0.99621467       3.94253558       0.80395919
Si       1.72101040       1.38905135       5.87521715
Si       1.78393545       1.45662122      -0.94465484
Si       5.10489834       5.97822978       6.05028302
Si       2.28806315       3.77155728       2.49265967
Si       2.88037012       5.41084422       6.14977546
Si       5.55211432       3.06146634       4.14288338
