22
Lattice="5.44449518979654 -4.2505154508661877e-35 2.0175540565497166e-22 6.849790100185269e-35 8.808958139638891 9.232350034496376e-16 -6.068055982618302e-22 -2.14026119081219e-15 16.081528788324306" Properties=species:S:1:pos:R:3 unique_starting_index=32 config_type=initial n_minim_iter=16 energy=-3581.6324411787837 free_energy=-3581.6324411787837 pbc="T T T"
Si       1.69715003       0.13539911       8.07656397
Si       3.74734516       8.67355903       8.07656397
Si       1.69715003       4.26907996       0.03579958
Si       3.74734516       4.53987818       0.03579958
Si       5.36053817       3.34892913      15.43686585
Si       0.08395702       5.46002901      15.43686585
Si       5.36053817       1.05554994       7.39610145
Si       0.08395702       7.75340820       7.39610145
Si       3.55647997       3.57313115      12.40856612
Si       1.88801522       5.23582699      12.40856612
Si       3.55647997       0.83134792       4.36780173
Si       1.88801522       7.97761022       4.36780173
Si       1.88802870       5.28165937       9.68702101
Si       3.55646648       3.52729877       9.68702101
Si       1.88802870       7.93177784       1.64625662
Si       3.55646648       0.87718030       1.64625662
Si       1.95651219       0.73357239       2.98536487
Si       3.48798300       8.07538575       2.98536487
Si       1.95651219       3.67090668      11.02612926
Si       3.48798300       5.13805146      11.02612926
Si       2.72224759       4.40447907       1.88776301
Si       2.72224759      -0.00000000       9.92852740
