20
Lattice="8.661823764067952 -2.6646930687837645e-12 -3.155313358693621e-14 4.3309118820362835 7.501359422785262 3.3595555193019776e-14 4.330911882034777 2.5004531409274766 8.355182620187906" Properties=species:S:1:pos:R:3 unique_starting_index=8 config_type=initial n_minim_iter=1 energy=-3255.9572205099635 free_energy=-3255.9572205099635 pbc="T T T"
Si       9.88080453       4.51243214       3.78747685
Si       8.47536440       6.30081166       3.78747685
Si       7.62930237       4.18947504       3.78747685
Si       6.93927344       4.73850631       5.76314428
Si       9.75034397       3.64033393       5.76314428
Si       9.29585389       6.62387861       5.76314428
Si       8.08879559       3.04906113       6.97224476
Si      10.63868534       5.48057190       6.97224476
Si       7.25799037       6.47308581       6.97224476
Si       5.60364725       5.82402164       0.58025914
Si       9.47807322       1.94089005       0.58025914
Si      10.90375084       7.23780716       0.58025914
Si      12.00795446       6.75234330       5.96642376
Si      14.13379323       7.02302196       5.96642376
Si      12.83645926       8.72871301       5.96642376
Si       9.30229293       1.04116692       2.49151674
Si      11.77082407       7.53543853       2.49151674
Si       4.91235431       6.42611340       2.49151674
Si      12.99273565       7.50135942       0.75985520
Si      12.99273565       7.50135942       4.23451310
20
Lattice="8.654008639835387 -2.661311451746224e-12 -3.148201282455582e-14 4.327004319919997 7.494591326666132 3.3534630810760753e-14 4.327004319918495 2.498197108887768 8.358668755760405" Properties=species:S:1:pos:R:3 unique_starting_index=8 config_type=initial n_minim_iter=2 stress="-0.0028416236881626004 1.2130902172613963e-16 1.0850078305479344e-15 1.2130902172613963e-16 -0.00284162368816513 8.705424691167447e-16 1.0850078305479344e-15 8.705424691167447e-16 -0.002346851448561011" pbc="T T T"
Si       9.87197772       4.50821100       3.78905019
Si       8.46780317       6.29527799       3.78905019
Si       7.62224504       4.18569366       3.78905019
Si       6.93306977       4.73424522       5.76548329
Si       9.74150577       3.63709193       5.76548329
Si       9.28745039       6.61784550       5.76548329
Si       8.08150204       3.04636873       6.97517672
Si      10.62903355       5.47560170       6.97517672
Si       7.25149034       6.46721222       6.97517672
Si       5.59859234       5.81870321       0.58047886
Si       9.46957632       1.93917159       0.58047886
Si      10.89385727       7.23130786       0.58047886
Si      11.99735022       6.74633139       5.96918410
Si      14.12085644       7.01684437       5.96918410
Si      12.82483222       8.72059822       5.96918410
Si       9.29373257       1.04002103       2.49262479
Si      11.76046637       7.52859799       2.49262479
Si       4.90782699       6.42056364       2.49262479
Si      12.98101296       7.49459133       0.76033304
Si      12.98101296       7.49459133       4.23531731
20
Lattice="8.654267772536507 -2.6623442299891457e-12 -3.1475609600581476e-14 4.327133886270556 7.494815742168254 3.3572826122531485e-14 4.327133886269056 2.4982719140551417 8.36338116289438" Properties=species:S:1:pos:R:3 unique_starting_index=8 config_type=initial n_minim_iter=3 stress="-0.001181967565849313 4.887166830718272e-16 1.8435436998974837e-15 4.887166830718272e-16 -0.0011819675658493393 1.2613328992937125e-15 1.8435436998974837e-15 1.2613328992937125e-15 0.002934294449327914" pbc="T T T"
Si       9.87236103       4.50820719       3.79118515
Si       8.46813309       6.29561185       3.79118515
Si       7.62230921       4.18581245       3.79118515
Si       6.93332680       4.73438511       5.76866135
Si       9.74177438       3.63724458       5.76866135
Si       9.28770215       6.61800179       5.76866135
Si       8.08172175       3.04655980       6.97916749
Si      10.62927649       5.47569644       6.97916749
Si       7.25180508       6.46737525       6.97916749
Si       5.59875147       5.81882177       0.58081090
Si       9.46991234       1.93925011       0.58081090
Si      10.89413952       7.23155960       0.58081090
Si      11.99788442       6.74659073       5.97275069
Si      14.12114215       7.01717734       5.97275069
Si      12.82517841       8.72067917       5.97275069
Si       9.29394366       1.04000984       2.49404246
Si      11.76088878       7.52878639       2.49404246
Si       4.90797089       6.42083526       2.49404246
Si      12.98140166       7.49481574       0.76086677
Si      12.98140166       7.49481574       4.23699029
20
Lattice="8.656862566223253 -2.663749430262516e-12 -3.150266076386738e-14 4.328431283113929 7.4970628994185535 3.3575908522004166e-14 4.328431283112426 2.499020966471908 8.360425572919882" Properties=species:S:1:pos:R:3 unique_starting_index=8 config_type=initial n_minim_iter=4 stress="-0.000582155717719221 1.5558663054250326e-15 1.6293663217617875e-15 1.5558663054250326e-15 -0.0005821557177199151 4.8577500285474e-16 1.6293663217617875e-15 4.8577500285474e-16 -0.0009196746248723952" pbc="T T T"
Si       9.87570627       4.50895747       3.78986596
Si       8.47100029       6.29813377       3.78986596
Si       7.62388115       4.18703456       3.78986596
Si       6.93562462       4.73579529       5.76629380
Si       9.74459380       3.63852947       5.76629380
Si       9.29036929       6.61980105       5.76629380
Si       8.08405885       3.04788085       6.97693589
Si      10.63215347       5.47705990       6.97693589
Si       7.25437539       6.46918505       6.97693589
Si       5.60032996       5.82038083       0.58080885
Si       9.47296250       1.93983760       0.58080885
Si      10.89729525       7.23390738       0.58080885
Si      12.00219476       6.74884069       5.97134044
Si      14.12482285       7.01978522       5.97134044
Si      12.82886395       8.72256280       5.97134044
Si       9.29652105       1.04032397       2.49288814
Si      11.76451763       7.53086141       2.49288814
Si       4.90954903       6.42294042       2.49288814
Si      12.98529385       7.49706290       0.76137784
Si      12.98529385       7.49706290       4.23304118
20
Lattice="8.65425047405527 -2.6600143651164153e-12 -3.148707517331977e-14 4.327125237029935 7.494800761244058 3.357464091952697e-14 4.327125237028435 2.4982669204137435 8.364248732778961" Properties=species:S:1:pos:R:3 unique_starting_index=8 config_type=initial n_minim_iter=5 stress="-0.001047926664750909 4.3840894885038605e-15 1.2638421535962215e-15 4.3840894885038605e-15 -0.0010479266647569075 3.159262678701527e-16 1.2638421535962215e-15 3.159262678701527e-16 -0.00041090003191133974" pbc="T T T"
Si       9.87352187       4.50628370       3.79157650
Si       8.46918386       6.29757891       3.79157650
Si       7.62004570       4.18573891       3.79157650
Si       6.93402542       4.73444148       5.76829399
Si       9.74134165       3.63782142       5.76829399
Si       9.28738436       6.61733863       5.76829399
Si       8.08164169       3.04729159       6.98027095
Si      10.62864818       5.47526122       6.98027095
Si       7.25246156       6.46704872       6.98027095
Si       5.59842323       5.81820341       0.58149088
Si       9.47057738       1.93927504       0.58149088
Si      10.89375082       7.23212308       0.58149088
Si      11.99998950       6.74709242       5.97506431
Si      14.11960324       7.01874955       5.97506431
Si      12.82453440       8.71856032       5.97506431
Si       9.29388941       1.04107278       2.49306294
Si      11.75996077       7.52820794       2.49306294
Si       4.90890125       6.42032080       2.49306294
Si      12.98137571       7.49480076       0.76205121
Si      12.98137571       7.49480076       4.23486235
20
Lattice="8.65380000901977 -2.6611958416288006e-12 -3.1487705028290745e-14 4.326900004512184 7.494410647079796 3.357264416268905e-14 4.326900004510684 2.4981368823589887 8.363973730904313" Properties=species:S:1:pos:R:3 unique_starting_index=8 config_type=initial n_minim_iter=6 stress="0.00015225789774367854 3.062300946439494e-15 3.178098833776495e-15 3.062300946439494e-15 0.00015225789773558998 2.488669251004492e-16 3.178098833776495e-15 2.488669251004492e-16 -0.00018609958895668646" pbc="T T T"
Si       9.87411011       4.50412049       3.79129553
Si       8.46986221       6.29916995       3.79129553
Si       7.61742772       4.18553086       3.79129553
Si       6.93440111       4.73438088       5.76725707
Si       9.74030536       3.63817708       5.76725707
Si       9.28669357       6.61626334       5.76725707
Si       8.08145486       3.04693058       6.97983096
Si      10.62815331       5.47527992       6.97983096
Si       7.25179187       6.46661080       6.97983096
Si       5.59802236       5.81704998       0.58146783
Si       9.47087578       1.93950459       0.58146783
Si      10.89250189       7.23226673       0.58146783
Si      11.99970693       6.74571027       5.97637386
Si      14.11959010       7.01919590       5.97637386
Si      12.82280301       8.71832577       5.97637386
Si       9.29337960       1.04196145       2.49278873
Si      11.75854514       7.52732209       2.49278873
Si       4.90947530       6.41953775       2.49278873
Si      12.98070002       7.49441065       0.76182003
Si      12.98070002       7.49441065       4.23464197
20
Lattice="8.656899897836137 -2.6621667193340764e-12 -3.1502526539872256e-14 4.328449948920369 7.4970952295436755 3.3583580095385015e-14 4.328449948918868 2.499031743180281 8.36167970380651" Properties=species:S:1:pos:R:3 unique_starting_index=8 config_type=initial n_minim_iter=7 stress="0.000700490671905187 5.788933441338073e-15 3.640808922084961e-15 5.788933441338073e-15 0.0007004906719027844 7.428407667366906e-16 3.640808922084961e-15 7.428407667366906e-16 0.0005990026828736053" pbc="T T T"
Si       9.88014696       4.50101752       3.78938965
Si       8.47573080       6.30594950       3.78938965
Si       7.61482194       4.18722344       3.78938965
Si       6.93863031       4.73661165       5.76383519
Si       9.74245863       3.64072429       5.76383519
Si       9.28961076       6.61685452       5.76383519
Si       8.08453933       3.04880393       6.97814941
Si      10.63118848       5.47701447       6.97814941
Si       7.25497189       6.46837206       6.97814941
Si       5.59995576       5.81668633       0.58052302
Si       9.47642380       1.94136078       0.58052302
Si      10.89432015       7.23614336       0.58052302
Si      12.00574168       6.74628179       5.97666833
Si      14.12537745       7.02413639       5.97666833
Si      12.82493042       8.72086751       5.97666833
Si       9.29512316       1.04208400       2.49253862
Si      11.76376700       7.52877079       2.49253862
Si       4.91180954       6.42333567       2.49253862
Si      12.98534985       7.49709523       0.76171491
Si      12.98534985       7.49709523       4.23605066
20
Lattice="8.656669129274096 -2.6612648943230578e-12 -3.149672537176218e-14 4.328334564639347 7.496895378106549 3.358628624874367e-14 4.3283345646378475 2.498965126034573 8.3571634344882" Properties=species:S:1:pos:R:3 unique_starting_index=8 config_type=initial n_minim_iter=8 stress="0.0009802018214351807 6.757837704399776e-15 4.98527755267318e-15 6.757837704399776e-15 0.0009802018214315714 7.096488647576196e-16 4.98527755267318e-15 7.096488647576196e-16 0.0002507806118906449" pbc="T T T"
Si       9.88055626       4.49827819       3.78539801
Si       8.47743695       6.30767363       3.78539801
Si       7.61201419       4.18783894       3.78539801
Si       6.93936952       4.73727454       5.76050991
Si       9.74105341       3.64103302       5.76050991
Si       9.28958447       6.61548320       5.76050991
Si       8.08430997       3.04990862       6.97486978
Si      10.62988494       5.47626350       6.97486978
Si       7.25581249       6.46761864       6.97486978
Si       5.59916930       5.81521135       0.58052471
Si       9.47763286       1.94141718       0.58052471
Si      10.89320524       7.23716223       0.58052471
Si      12.00671888       6.74476671       5.97419734
Si      14.12550864       7.02574021       5.97419734
Si      12.82278357       8.72017922       5.97419734
Si       9.29398530       1.04276023       2.49223985
Si      11.76328876       7.52744726       2.49223985
Si       4.91273333       6.42358327       2.49223985
Si      12.98500370       7.49689538       0.75938246
Si      12.98500370       7.49689538       4.23432739
20
Lattice="8.651539446264778 -2.6565370165908942e-12 -3.147587072027022e-14 4.325769723134683 7.492452942307119 3.357050961802861e-14 4.325769723133186 2.497484314101432 8.358886649304075" Properties=species:S:1:pos:R:3 unique_starting_index=8 config_type=initial n_minim_iter=9 stress="0.0016164553893884188 3.651379959613876e-15 5.6724448965334125e-15 3.651379959613876e-15 0.0016164553893943266 7.573291092413172e-17 5.6724448965334125e-15 7.573291092413172e-17 0.0012843874433678014" pbc="T T T"
Si       9.87564090       4.48482297       3.77475244
Si       8.48128782       6.31014441       3.77475244
Si       7.59768963       4.18993850       3.77475244
Si       6.93885467       4.73814580       5.76212759
Si       9.73029693       3.64015152       5.76212759
Si       9.28546675       6.60660857       5.76212759
Si       8.07873780       3.05310912       6.97899934
Si      10.61963994       5.46983760       6.97899934
Si       7.25624061       6.46195916       6.97899934
Si       5.59213119       5.80606033       0.58287367
Si       9.47881756       1.93989751       0.58287367
Si      10.88366959       7.23894805       0.58287367
Si      12.00330104       6.73249750       5.97966620
Si      14.12245396       7.02891488       5.97966620
Si      12.80617252       8.71594645       5.97966620
Si       9.28337675       1.04455526       2.49328721
Si      11.75677914       7.51736246       2.49328721
Si       4.91446247       6.42298817       2.49328721
Si      12.97730917       7.49245294       0.75996511
Si      12.97730917       7.49245294       4.23868976
20
Lattice="8.647787550237103 -2.6529833082341942e-12 -3.145815022948108e-14 4.323893775120844 7.4892037050347975 3.3555091613908745e-14 4.323893775119349 2.496401235010659 8.356889340626886" Properties=species:S:1:pos:R:3 unique_starting_index=8 config_type=initial n_minim_iter=10 stress="1.7031450669101782e-05 2.4003917057982105e-15 6.3237268836598686e-15 2.4003917057982105e-15 1.7031450672807212e-05 -2.625635667414853e-16 6.3237268836598686e-15 -2.625635667414853e-16 0.00013832775287727576" pbc="T T T"
Si       9.86920068       4.47866660       3.76837658
Si       8.48233572       6.30764521       3.76837658
Si       7.59182626       4.19209561       3.76837658
Si       6.93715009       4.73569018       5.75913955
Si       9.72577206       3.63990312       5.75913955
Si       9.28044051       6.60281412       5.75913955
Si       8.07273059       3.05135743       6.97943239
Si      10.61665676       5.46551105       6.97943239
Si       7.25397531       6.46153893       6.97943239
Si       5.58789183       5.80110243       0.58213882
Si       9.47772712       1.93870506       0.58213882
Si      10.87774371       7.23859992       0.58213882
Si      12.00093329       6.72697286       5.97956715
Si      14.11716662       7.02962667       5.97956715
Si      12.79694407       8.71101159       5.97956715
Si       9.27771175       1.04647798       2.49527557
Si      11.75044271       7.51149508       2.49527557
Si       4.91520819       6.42043436       2.49527557
Si      12.97168133       7.48920371       0.76352631
Si      12.97168133       7.48920371       4.23893276
20
Lattice="8.646114156522408 -2.6517943003665125e-12 -3.144935014191996e-14 4.3230570782634965 7.487754503567341 3.3559358596232394e-14 4.323057078262002 2.49591816785484 8.35905373386138" Properties=species:S:1:pos:R:3 unique_starting_index=8 config_type=initial n_minim_iter=11 stress="-0.0011737803737869844 2.9154344407630775e-16 8.123589503089831e-15 2.9154344407630775e-16 -0.0011737803737837478 5.892580161696276e-16 8.123589503089831e-15 5.892580161696276e-16 -0.0002363075471399725" pbc="T T T"
Si       9.86456974       4.47574817       3.76754676
Si       8.48383184       6.30509390       3.76754676
Si       7.58994091       4.19466694       3.76754676
Si       6.93701241       4.73445675       5.75879720
Si       9.72356229       3.64040059       5.75879720
Si       9.27776778       6.60065166       5.75879720
Si       8.06964395       3.04994941       6.98193623
Si      10.61607267       5.46354195       6.98193623
Si       7.25262586       6.46201764       6.98193623
Si       5.58416720       5.80080956       0.58322611
Si       9.47649628       1.93562587       0.58322611
Si      10.87767900       7.23907358       0.58322611
Si      11.99929652       6.72461137       5.98132262
Si      14.11500993       7.02938993       5.98132262
Si      12.79320726       8.70926221       5.98132262
Si       9.27430135       1.04731671       2.49718169
Si      11.74807477       7.50812221       2.49718169
Si       4.91596636       6.42007009       2.49718169
Si      12.96917124       7.48775450       0.76486083
Si      12.96917124       7.48775450       4.24051490
20
Lattice="8.648986813147372 -2.6526823608953517e-12 -3.145687773959377e-14 4.3244934065759795 7.49024229718091 3.3570854446692854e-14 4.3244934065744856 2.4967474323926955 8.359576210691529" Properties=species:S:1:pos:R:3 unique_starting_index=8 config_type=initial n_minim_iter=12 stress="-0.000607138834588725 6.80789900567827e-15 9.428053809269238e-15 6.80789900567827e-15 -0.0006071388345896138 2.2729630598970937e-16 9.428053809269238e-15 2.2729630598970937e-16 -0.00019501149336376803" pbc="T T T"
Si       9.86600600       4.47482547       3.76648068
Si       8.48965810       6.30679910       3.76648068
Si       7.59129635       4.19886004       3.76648068
Si       6.94108352       4.73749617       5.75842537
Si       9.72463983       3.64240657       5.75842537
Si       9.28123709       6.60058185       5.75842537
Si       8.07257927       3.05087155       6.98155072
Si      10.61955173       5.46562295       6.98155072
Si       7.25482944       6.46399010       6.98155072
Si       5.58464579       5.80230541       0.58348910
Si       9.48070685       1.93529241       0.58348910
Si      10.88160781       7.24288677       0.58348910
Si      12.00433441       6.72630578       5.98209063
Si      14.11964156       7.03290567       5.98209063
Si      12.79646469       8.71151545       5.98209063
Si       9.27573391       1.04881724       2.49860103
Si      11.75180431       7.50861258       2.49860103
Si       4.91942224       6.42305478       2.49860103
Si      12.97348022       7.49024230       0.76713834
Si      12.97348022       7.49024230       4.24146427
20
Lattice="8.652593175336236 -2.656230281649345e-12 -3.146980318767084e-14 4.326296587670416 7.493365498451714 3.3581589218132534e-14 4.326296587668919 2.497788499482962 8.361116178522966" Properties=species:S:1:pos:R:3 unique_starting_index=8 config_type=initial n_minim_iter=13 stress="0.0007167807922348312 7.388930613801714e-15 9.801384658357746e-15 7.388930613801714e-15 0.0007167807922358797 -6.566328095447704e-16 9.801384658357746e-15 -6.566328095447704e-16 -3.999276889214304e-05" pbc="T T T"
Si       9.86826337       4.47361475       3.76602463
Si       8.49679065       6.30935939       3.76602463
Si       7.59272552       4.20375686       3.76602463
Si       6.94643593       4.74148139       5.75831528
Si       9.72572505       3.64504928       5.75831528
Si       9.28561855       6.60020033       5.75831528
Si       8.07609036       3.05183654       6.98152796
Si      10.62417321       5.46818114       6.98152796
Si       7.25751597       6.46671332       6.98152796
Si       5.58581693       5.80411300       0.58478517
Si       9.48576858       1.93540286       0.58478517
Si      10.88619402       7.24721514       0.58478517
Si      12.01004765       6.72876472       5.98361325
Si      14.12547452       7.03662400       5.98361325
Si      12.80114713       8.71470777       5.98361325
Si       9.27682294       1.05067311       2.50026372
Si      11.75686528       7.50862778       2.50026372
Si       4.92409131       6.42743011       2.50026372
Si      12.97888977       7.49336550       0.76891326
Si      12.97888977       7.49336550       4.24306612
20
Lattice="8.653142344490046 -2.6561953278112065e-12 -3.1474865886287195e-14 4.32657117224732 7.493841092889884 3.3585283787806194e-14 4.326571172245824 2.4979470309623517 8.363765095865132" Properties=species:S:1:pos:R:3 unique_starting_index=8 config_type=initial n_minim_iter=14 stress="0.00024268772100333858 3.0433670186082726e-16 1.022884599966812e-14 3.0433670186082726e-16 0.00024268772100425568 -2.390862666798746e-15 1.022884599966812e-14 -2.390862666798746e-15 0.0001784357589720725" pbc="T T T"
Si       9.86806090       4.47196579       3.76624853
Si       8.49941826       6.31000853       3.76624853
Si       7.59194788       4.20570787       3.76624853
Si       6.94848707       4.74313461       5.75944650
Si       9.72436609       3.64599902       5.75944650
Si       9.28657388       6.59854856       5.75944650
Si       8.07620998       3.05192689       6.98305675
Si      10.62513349       5.46823957       6.98305675
Si       7.25808357       6.46751573       6.98305675
Si       5.58585097       5.80405881       0.58628586
Si       9.48689684       1.93545943       0.58628586
Si      10.88667924       7.24816395       0.58628586
Si      12.01077593       6.72916737       5.98550434
Si      14.12640918       7.03705339       5.98550434
Si      12.80195544       8.71530252       5.98550434
Si       9.27492505       1.05163879       2.50167079
Si      11.75807626       7.50650131       2.50167079
Si       4.92642573       6.42954209       2.50167079
Si      12.97971352       7.49384109       0.76992373
Si      12.97971352       7.49384109       4.24490234
20
Lattice="8.651430345849857 -2.656046132610961e-12 -3.146727679658466e-14 4.325715172927226 7.492358458576237 3.358016059995923e-14 4.32571517292573 2.4974528195244696 8.373956217240481" Properties=species:S:1:pos:R:3 unique_starting_index=8 config_type=initial n_minim_iter=15 stress="-0.00024513233453763426 -3.9371563697671505e-16 1.0387096446460085e-14 -3.9371563697671505e-16 -0.000245132334533609 -1.5251703052473793e-16 1.0387096446460085e-14 -1.5251703052473793e-16 0.0002729151861052548" pbc="T T T"
Si       9.86390610       4.46625986       3.76809463
Si       8.50301315       6.30926333       3.76809463
Si       7.58737180       4.20919373       3.76809463
Si       6.95198553       4.74635583       5.76443107
Si       9.71640320       3.64741816       5.76443107
Si       9.28590231       6.59094293       5.76443107
Si       8.07175796       3.05046532       6.98949561
Si      10.62520125       5.46511479       6.98949561
Si       7.25733183       6.46913681       6.98949561
Si       5.58528308       5.80252485       0.59084337
Si       9.48508523       1.93573461       0.59084337
Si      10.88392273       7.24645746       0.59084337
Si      12.00696379       6.72976713       5.99120242
Si      14.12265985       7.03345209       5.99120242
Si      12.80181293       8.71385615       5.99120242
Si       9.26492063       1.05653174       2.50742709
Si      11.75541706       7.49539076       2.50742709
Si       4.93395336       6.43279442       2.50742709
Si      12.97714552       7.49235846       0.77595944
Si      12.97714552       7.49235846       4.25064746
20
Lattice="8.647540980907195 -2.653070968579148e-12 -3.1462494038264656e-14 4.323770490455893 7.488990169731307 3.3561366711261155e-14 4.323770490454399 2.49633005657616 8.376803897236297" Properties=species:S:1:pos:R:3 unique_starting_index=8 config_type=initial n_minim_iter=16 stress="-5.354786579799204e-05 -1.349491272103089e-15 1.1268005889691224e-14 -1.349491272103089e-15 -5.354786579220284e-05 1.8654014897129213e-15 1.1268005889691224e-14 1.8654014897129213e-15 -4.23789253859522e-05" pbc="T T T"
Si       9.86185306       4.46352082       3.76906509
Si       8.49863301       6.30885487       3.76906509
Si       7.58213688       4.20560465       3.76906509
Si       6.94958430       4.74491607       5.76604430
Si       9.71107196       3.64605851       5.76604430
Si       9.28196669       6.58700576       5.76604430
Si       8.06478133       3.04882920       6.99205523
Si      10.62232777       5.45989091       6.99205523
Si       7.25551386       6.46926024       6.99205523
Si       5.58504285       5.80067070       0.59196963
Si       9.47903236       1.93645364       0.59196963
Si      10.87854774       7.24085600       0.59196963
Si      11.99884488       6.72885436       5.99189892
Si      14.11584170       7.02687730       5.99189892
Si      12.79924785       8.71123885       5.99189892
Si       9.25705698       1.05876455       2.50894513
Si      11.74963648       7.48746423       2.50894513
Si       4.93592949       6.43175156       2.50894513
Si      12.97131147       7.48899017       0.77736311
Si      12.97131147       7.48899017       4.25162945
20
Lattice="8.645894958477486 -2.649650510402467e-12 -3.1441460723486284e-14 4.322947479241037 7.487564672491981 3.3561905079912527e-14 4.322947479239546 2.49585489082972 8.376252049358637" Properties=species:S:1:pos:R:3 unique_starting_index=8 config_type=initial n_minim_iter=17 stress="-0.00013484594110825562 8.986134273368428e-15 1.1160057422820134e-14 8.986134273368428e-15 -0.0001348459411033942 1.4706241249071815e-15 1.1160057422820134e-14 1.4706241249071815e-15 -5.251956344852903e-05" pbc="T T T"
Si       9.86040213       4.46256348       3.76892760
Si       8.49689552       6.30807699       3.76892760
Si       7.58038724       4.20448887       3.76892760
Si       6.94809731       4.74523738       5.76668642
Si       9.70824515       3.64461009       5.76668642
Si       9.28134243       6.58528188       5.76668642
Si       8.06182912       3.04873657       6.99114685
Si      10.62059204       5.45738053       6.99114685
Si       7.25526372       6.46901224       6.99114685
Si       5.58434123       5.80090756       0.59075832
Si       9.47588599       1.93572759       0.59075832
Si      10.87745766       7.23849420       0.59075832
Si      11.99513016       6.72885704       5.99167438
Si      14.11275867       7.02365892       5.99167438
Si      12.79863850       8.71017806       5.99167438
Si       9.25373331       1.06011712       2.50892003
Si      11.74683491       7.48390956       2.50892003
Si       4.93711666       6.43110266       2.50892003
Si      12.96884244       7.48756467       0.77769990
Si      12.96884244       7.48756467       4.25149212
20
Lattice="8.649296212603886 -2.649711878257361e-12 -3.145464141047032e-14 4.324648106304238 7.490510244970173 3.3588775883884406e-14 4.324648106302746 2.496836748322451 8.373454695891072" Properties=species:S:1:pos:R:3 unique_starting_index=8 config_type=initial n_minim_iter=18 stress="0.0008449257013340845 1.0376484707854466e-14 1.026350527388056e-14 1.0376484707854466e-14 0.000844925701341046 2.2509436741840137e-15 1.026350527388056e-14 2.2509436741840137e-15 0.00038410829046485283" pbc="T T T"
Si       9.86291548       4.46159104       3.76734374
Si       8.50328351       6.31073984       3.76734374
Si       7.58168966       4.20868962       3.76734374
Si       6.95138315       4.74932141       5.76465913
Si       9.70986786       3.64541369       5.76465913
Si       9.28663763       6.58628539       5.76465913
Si       8.06153617       3.04971455       6.98796439
Si      10.62669408       5.45663784       6.98796439
Si       7.25965840       6.47466811       6.98796439
Si       5.58554582       5.80533981       0.58924610
Si       9.47824777       1.93455467       0.58924610
Si      10.88409506       7.24112601       0.58924610
Si      11.99894320       6.73335799       5.99177141
Si      14.11715797       7.02471064       5.99177141
Si      12.80573179       8.71346211       5.99177141
Si       9.25253647       1.06265142       2.50834660
Si      11.75204107       7.48160592       2.50834660
Si       4.94331110       6.43676315       2.50834660
Si      12.97394432       7.49051025       0.77684299
Si      12.97394432       7.49051025       4.25134964
20
Lattice="8.648776671681318 -2.6492764318939706e-12 -3.147014760794765e-14 4.3243883358429525 7.490060309332923 3.360743982525181e-14 4.324388335841461 2.496686769776702 8.372364335843624" Properties=species:S:1:pos:R:3 unique_starting_index=8 config_type=initial n_minim_iter=19 stress="0.00018421374230214208 1.1089318946041032e-14 1.120735916198838e-14 1.1089318946041032e-14 0.00018421374231162714 3.398822777405421e-15 1.120735916198838e-14 3.398822777405421e-15 0.00011439028240491063" pbc="T T T"
Si       9.86188426       4.46055172       3.76654652
Si       8.50366011       6.31036643       3.76654652
Si       7.58078565       4.20920247       3.76654652
Si       6.95089544       4.74989522       5.76416442
Si       9.70857571       3.64470442       5.76416442
Si       9.28685888       6.58552099       5.76416442
Si       8.05987776       3.04971918       6.98682663
Si      10.62648018       5.45519930       6.98682663
Si       7.25997208       6.47520214       6.98682663
Si       5.58534496       5.80547279       0.58860500
Si       9.47719395       1.93431423       0.58860500
Si      10.88379111       7.24033360       0.58860500
Si      11.99785505       6.73345972       5.99165727
Si      14.11605532       7.02371740       5.99165727
Si      12.80558466       8.71300381       5.99165727
Si       9.25049947       1.06338779       2.50813849
Si      11.75138278       7.47947364       2.50813849
Si       4.94444778       6.43725919       2.50813849
Si      12.97316501       7.49006031       0.77662814
Si      12.97316501       7.49006031       4.25108463
20
Lattice="8.648685343361208 -2.647235460504576e-12 -3.145914534147407e-14 4.3243426716828965 7.489981216687627 3.361801763550564e-14 4.324342671681404 2.4966604055616037 8.371316703118138" Properties=species:S:1:pos:R:3 unique_starting_index=8 config_type=initial n_minim_iter=20 stress="-0.0001578559720057504 1.0635572305610453e-14 1.170748744115417e-14 1.0635572305610453e-14 -0.00015785597199057075 4.367642714544886e-15 1.170748744115417e-14 4.367642714544886e-15 -5.779652546058594e-05" pbc="T T T"
Si       9.86125369       4.45960389       3.76577920
Si       8.50461358       6.31029426       3.76577920
Si       7.58018876       4.21006428       3.76577920
Si       6.95066958       4.75082499       5.76364039
Si       9.70770077       3.64404393       5.76364039
Si       9.28768569       6.58509351       5.76364039
Si       8.05850432       3.04985254       6.98562092
Si      10.62686875       5.45394318       6.98562092
Si       7.26068297       6.47616671       6.98562092
Si       5.58576311       5.80578111       0.58811002
Si       9.47653521       1.93452220       0.58811002
Si      10.88375772       7.23965913       0.58811002
Si      11.99741447       6.73392537       5.99155222
Si      14.11559836       7.02310303       5.99155222
Si      12.80607122       8.71291525       5.99155222
Si       9.24869581       1.06430509       2.50793234
Si      11.75130755       7.47745297       2.50793234
Si       4.94605269       6.43820438       2.50793234
Si      12.97302802       7.48998122       0.77648907
Si      12.97302802       7.48998122       4.25089211
20
Lattice="8.649279875505949 -2.644196186480385e-12 -3.1475646618876056e-14 4.324639937755266 7.490496096628334 3.3610284538561216e-14 4.324639937753771 2.496832032208508 8.369863420446947" Properties=species:S:1:pos:R:3 unique_starting_index=8 config_type=initial n_minim_iter=21 stress="-0.0002324732495090192 1.2066345750401682e-15 1.0811481452972706e-14 1.2066345750401682e-15 -0.00023247324950106547 4.305855183518414e-15 1.0811481452972706e-14 4.305855183518414e-15 -0.00013418777277569624" pbc="T T T"
Si       9.86147938       4.45933897       3.76517905
Si       8.50591924       6.31062218       3.76517905
Si       7.58044102       4.21103105       3.76517905
Si       6.95040493       4.75181425       5.76285023
Si       9.70816543       3.64332011       5.76285023
Si       9.28926927       6.58585783       5.76285023
Si       8.05809041       3.05018029       6.98404315
Si      10.62798093       5.45342086       6.98404315
Si       7.26176829       6.47739105       6.98404315
Si       5.58708969       5.80634729       0.58769334
Si       9.47657065       1.93538796       0.58769334
Si      10.88417929       7.23925694       0.58769334
Si      11.99822399       6.73461247       5.99110553
Si      14.11638215       7.02346054       5.99110553
Si      12.80715330       8.71341528       5.99110553
Si       9.24821319       1.06485982       2.50737616
Si      11.75225750       7.47675765       2.50737616
Si       4.94736894       6.43937472       2.50737616
Si      12.97391982       7.49049610       0.77595224
Si      12.97391982       7.49049610       4.25038501
