22
Lattice="8.25788969393366 1.9536601737059588e-07 -3.6310400549685157e-07 -3.476708942867284 7.490342924310102 3.6310400549685157e-07 -2.390590069466807 -3.7451717552041 6.960711877456501" Properties=species:S:1:pos:R:3 unique_starting_index=6 config_type=initial n_minim_iter=1 pbc="T T T"
Si      -2.69923942       4.27502728       5.84200529
Si       2.17613645       1.32999160       4.57538792
Si       5.79573578       2.53079117       0.06696256
Si      -0.49145146      -0.64546730       3.43706797
Si       6.15748266      -1.21135205       2.38532359
Si      -0.85319834       3.09667591       1.11870694
Si       2.01202694       3.02764641       3.52364390
Si      -2.53512990       2.57737247       6.89374931
Si      -0.68255426       4.97080015       2.00451883
Si       1.03474333       5.34662439       3.24984719
Si       1.65336155       3.27270876       1.33913031
Si       1.68951128       5.13572451       0.36721660
Si       2.02343694      -0.55558688       3.71086468
Si       2.40555536      -2.27149491       4.95619304
Si       1.55647137      -0.05047007       6.59349527
Si      -0.11816284      -0.86762045       5.62158156
Si      -1.33939009       1.57498351       1.02557260
Si       2.92850823       2.68177792       4.98430678
Si      -1.19102636       0.04021332       1.97640509
Si      -3.87480011       3.19336779       5.93513964
Si       2.39059037       3.74517156      -0.00000000
Si       2.93364981      -1.87258578       3.48035576
22
Lattice="8.472457945885097 0.014375958525987753 0.016769128340283754 -3.554006173444551 7.691020116479546 -0.016769128340283854 -2.4450902828695464 -3.8617209719084893 7.1338402113013" Properties=species:S:1:pos:R:3 unique_starting_index=6 config_type=initial n_minim_iter=2 pbc="T T T"
Si      -2.74968202       4.38152025       5.97609222
Si       2.24398596       1.36372497       4.69197426
Si       5.94963196       2.61125966       0.07626699
Si      -0.49756977      -0.66892688       3.52377028
Si       6.31958289      -1.23778010       2.45863507
Si      -0.86716385       3.17988509       1.14097886
Si       2.07609457       3.11072364       3.61006992
Si      -2.58143379       2.63429380       7.05757322
Si      -0.68813922       5.10406782       2.04518242
Si       1.07891473       5.49140128       3.32625876
Si       1.70402712       3.36305256       1.37333755
Si       1.74230788       5.28201428       0.37311873
Si       2.08166013      -0.57111681       3.80758145
Si       2.47428734      -2.33700207       5.08865779
Si       1.61243547      -0.05753955       6.76072148
Si      -0.11204749      -0.90017707       5.76050265
Si      -1.36905474       1.61354353       1.04636069
Si       3.01990134       2.75515324       5.11168329
Si      -1.21744931       0.03745473       2.02215691
Si      -3.95913227       3.26682277       6.07071039
Si       2.45922589       3.85269804      -0.00000000
Si       3.01368383      -1.92367250       3.57530467
22
Lattice="9.654955423921539 0.12062553688896908 0.11365268092791132 -3.955483320811535 8.808340732331116 -0.11365268092791177 -2.753935614604405 -4.525633765198478 8.073419928620877" Properties=species:S:1:pos:R:3 unique_starting_index=6 config_type=initial n_minim_iter=3 pbc="T T T"
Si      -3.00822923       4.97228946       6.69962183
Si       2.62352619       1.55677706       5.32465162
Si       6.80559551       3.08186112       0.12865536
Si      -0.53077836      -0.80365056       3.99504859
Si       7.20855073      -1.36990209       2.86242098
Si      -0.93277472       3.64750060       1.26014541
Si       2.44004944       3.58353818       4.07837133
Si      -2.82379361       2.94491628       7.94476456
Si      -0.70183155       5.84883898       2.26087764
Si       1.34431241       6.30806877       3.73852015
Si       1.99382397       3.87439463       1.55990512
Si       2.05026639       6.11122275       0.40396886
Si       2.40183857      -0.65046925       4.33489977
Si       2.84675354      -2.69977347       5.81254228
Si       1.92607043      -0.09300709       7.66945106
Si      -0.07908782      -1.08594526       6.51351480
Si      -1.52699311       1.82438491       1.15780038
Si       3.53611037       3.17667584       5.80469212
Si      -1.36128394       0.01923887       2.26872780
Si      -4.41171577       3.66573987       6.80196687
Si       2.84973605       4.46448314      -0.00000000
Si       3.45050990      -2.20250411       4.09353630
22
Lattice="9.820788894596848 0.12061883067251572 -0.05503204512881574 -4.025308057292874 8.958757640345157 0.05503204512881672 -2.9441271186024527 -4.510079018231983 8.213207333274497" Properties=species:S:1:pos:R:3 unique_starting_index=6 config_type=initial n_minim_iter=4 pbc="T T T"
Si      -3.17715003       5.14105949       6.92645349
Si       2.57051901       1.63551336       5.38915882
Si       6.91709659       3.13398117       0.04202064
Si      -0.60785175      -0.77189934       4.06889277
Si       7.27792760      -1.36928508       2.76901647
Si      -0.96858914       3.73130714       1.34178588
Si       2.40711589       3.69296127       4.14431456
Si      -3.01365329       3.08355182       8.17118669
Si      -0.75655223       5.97158362       2.37322080
Si       1.30579849       6.45653074       3.85068718
Si       1.99606269       3.95533511       1.60244177
Si       2.07306355       6.22599534       0.44563138
Si       2.36252493      -0.60734370       4.36252014
Si       2.79093624      -2.68217573       5.83998653
Si       1.83038576      -0.00845295       7.76757595
Si      -0.19680456      -1.03428258       6.61076556
Si      -1.57558345       1.86299294       1.22700340
Si       3.49681671       3.30001217       5.88274909
Si      -1.42305958       0.05107884       2.33045824
Si      -4.61625514       3.80389214       7.04123597
Si       2.89774042       4.53968824      -0.00000000
Si       3.43833089      -2.19473009       4.07908764
22
Lattice="9.825289265259915 0.07195506941559203 -0.22793246718985946 -4.071343394360366 8.942351460507721 0.22793246718986057 -3.0691002619366863 -4.384515962440754 8.243184047740776" Properties=species:S:1:pos:R:3 unique_starting_index=6 config_type=initial n_minim_iter=5 pbc="T T T"
Si      -3.32228375       5.21958769       7.06387109
Si       2.46558822       1.67081340       5.38084567
Si       6.90076637       3.08869689      -0.04729125
Si      -0.67381231      -0.71987894       4.08826954
Si       7.23365143      -1.37270166       2.63440590
Si      -1.00726468       3.74188173       1.40724542
Si       2.31556353       3.71552613       4.15491450
Si      -3.17282637       3.17523707       8.29047529
Si      -0.82720667       5.97483656       2.45725581
Si       1.21240761       6.46640778       3.91199322
Si       1.94626758       3.94656512       1.62279896
Si       2.03276187       6.20069303       0.48288587
Si       2.28582990      -0.56233273       4.33119082
Si       2.69866038      -2.61933046       5.78592823
Si       1.69942975       0.06990165       7.76029818
Si      -0.30876798      -0.95757864       6.62038509
Si      -1.60700071       1.87168951       1.28078895
Si       3.38079624       3.33963586       5.88156453
Si      -1.46324539       0.08808742       2.36161951
Si      -4.76614819       3.88821330       7.19032756
Si       2.87697293       4.50715327      -0.00000000
Si       3.37809450      -2.15628044       4.00762579
22
Lattice="9.944233235728582 -0.08159337653169489 -0.8244025263920712 -4.2606973513483535 8.9855934810048 0.8244025263920718 -3.5366697436834538 -4.008435443233037 8.426059818962337" Properties=species:S:1:pos:R:3 unique_starting_index=6 config_type=initial n_minim_iter=6 pbc="T T T"
Si      -3.84734049       5.54880789       7.60290920
Si       2.13285757       1.81150472       5.40408975
Si       6.91817843       2.97904146      -0.35607676
Si      -0.90682037      -0.55023086       4.19746889
Si       7.15272554      -1.39274050       2.19756754
Si      -1.14451034       3.82355722       1.64755314
Si       2.02956412       3.84137425       4.22859093
Si      -3.74718990       3.52094449       8.78213658
Si      -1.06776474       6.05364159       2.76780625
Si       0.91412893       6.57629905       4.15716423
Si       1.79841776       3.96772600       1.71062298
Si       1.92152784       6.18965863       0.61889642
Si       2.04351791      -0.41054069       4.26889558
Si       2.40385019      -2.42827060       5.65825357
Si       1.26868287       0.34044136       7.80716339
Si      -0.69489619      -0.70669665       6.71543683
Si      -1.72856577       1.92092745       1.47657374
Si       3.02070836       3.52021807       5.93547888
Si      -1.61541426       0.21357731       2.49058093
Si      -5.32722929       4.21799989       7.77388860
Si       2.84176794       4.45200006      -0.00000000
Si       3.20378175      -2.04501441       3.80082864
22
Lattice="9.899759973227466 -0.013112475232659336 -0.7478506481028901 -4.1798575664950395 8.974085479219465 0.7478506481028909 -3.4903261654049023 -4.0781101907485455 8.351726802739302" Properties=species:S:1:pos:R:3 unique_starting_index=6 config_type=initial n_minim_iter=7 pbc="T T T"
Si      -3.73156535       5.52083693       7.48370189
Si       2.16803575       1.78321333       5.36800322
Si       6.89160552       3.03674555      -0.32805879
Si      -0.86620477      -0.57680552       4.17658198
Si       7.11412347      -1.37393702       2.23587293
Si      -1.09144138       3.83561241       1.61587556
Si       2.07106975       3.85432453       4.17514482
Si      -3.63731802       3.45146109       8.67978559
Si      -1.00005609       6.04220197       2.70103466
Si       0.99236540       6.57476616       4.09393646
Si       1.82243312       3.98259974       1.70168787
Si       1.95172803       6.22036452       0.60665621
Si       2.05553221      -0.40989619       4.25779034
Si       2.41131096      -2.44134629       5.65069214
Si       1.33016353       0.31108748       7.74507058
Si      -0.64517220      -0.74832610       6.65003893
Si      -1.69575383       1.89798523       1.44353618
Si       3.07647668       3.52671145       5.90114753
Si      -1.58666023       0.19722119       2.45057927
Si      -5.23467011       4.15692025       7.65604127
Si       2.85995120       4.48048651      -0.00000000
Si       3.20471690      -2.04561133       3.80193807
22
Lattice="9.840075509032348 -0.06090176921858585 -0.8180012864139529 -4.198076830824892 8.899828423708154 0.8180012864139539 -3.5105054381080274 -3.9793428633848094 8.327130544081163" Properties=species:S:1:pos:R:3 unique_starting_index=6 config_type=initial n_minim_iter=8 pbc="T T T"
Si      -3.77944721       5.52698219       7.50474114
Si       2.10169132       1.76409351       5.34151941
Si       6.82241875       2.97453877      -0.37115825
Si      -0.87971711      -0.54769749       4.17683438
Si       7.04484915      -1.39118666       2.16760984
Si      -1.10410678       3.81927856       1.64039069
Si       2.00507819       3.83104406       4.15029616
Si      -3.68479335       3.46128226       8.69828879
Si      -1.03601387       5.98949082       2.71713252
Si       0.93520790       6.51514068       4.09588494
Si       1.77308154       3.94132386       1.70962215
Si       1.90014294       6.15429628       0.62604722
Si       2.00533374      -0.38807706       4.23124560
Si       2.35845871      -2.39738685       5.60999802
Si       1.27177505       0.33524856       7.70108331
Si      -0.68201305      -0.71170110       6.61750839
Si      -1.70116462       1.88857947       1.45833828
Si       2.99670276       3.50460504       5.87705114
Si      -1.59330503       0.21432219       2.45007940
Si      -5.27932214       4.17256267       7.68679354
Si       2.82099934       4.41946333      -0.00000000
Si       3.16478503      -2.02012231       3.75456463
22
Lattice="9.902342442681636 -0.04389559819372804 -0.8018093626001758 -4.208866750282906 8.963467708093678 0.8018093626001769 -3.522595500654324 -4.028377565871219 8.37046629855133" Properties=species:S:1:pos:R:3 unique_starting_index=6 config_type=initial n_minim_iter=9 pbc="T T T"
Si      -3.77576318       5.56129065       7.52837235
Si       2.12741282       1.76776706       5.37306548
Si       6.86542797       3.01166809      -0.36638404
Si      -0.87364437      -0.55940452       4.20389418
Si       7.08752895      -1.39833780       2.19559145
Si      -1.09741821       3.85166919       1.64390331
Si       2.03128953       3.86323427       4.16657211
Si      -3.68131275       3.46689126       8.73685033
Si      -1.02537723       6.03038606       2.71771233
Si       0.96456989       6.56221770       4.10892259
Si       1.79185437       3.97433338       1.72113162
Si       1.92151317       6.20916682       0.62798388
Si       2.02358314      -0.39065868       4.26154371
Si       2.37898459      -2.41955598       5.65275396
Si       1.30045825       0.32869920       7.74248241
Si      -0.67206540      -0.72981029       6.64933468
Si      -1.70479054       1.89828206       1.45904831
Si       3.03333750       3.53058445       5.91211012
Si      -1.59725423       0.20945490       2.45835617
Si      -5.29187479       4.18796330       7.71322735
Si       2.84673785       4.45978606      -0.00000000
Si       3.18987347      -2.03613658       3.78432847
22
Lattice="9.865579502452125 -0.04742155483132285 -0.8039709090509094 -4.196587169267264 8.92863728985604 0.8039709090509128 -3.5121758269065446 -4.008036369048991 8.341375328501904" Properties=species:S:1:pos:R:3 unique_starting_index=6 config_type=initial n_minim_iter=10 pbc="T T T"
Si      -3.76559777       5.54569148       7.50441379
Si       2.11497678       1.75782340       5.35394229
Si       6.83572365       2.99754012      -0.36956770
Si      -0.87001793      -0.55562291       4.19224000
Si       7.05740204      -1.39698915       2.18346212
Si      -1.09314804       3.83983302       1.64093244
Si       2.01912916       3.85010058       4.14913533
Si      -3.67120188       3.45434096       8.71094303
Si      -1.02376991       6.00596047       2.70827769
Si       0.95865149       6.53541069       4.09442569
Si       1.78114224       3.95862354       1.71749749
Si       1.91031897       6.18487533       0.62856072
Si       2.01217918      -0.38697198       4.24694963
Si       2.36657224      -2.40804043       5.63309763
Si       1.29355720       0.32865955       7.71281460
Si      -0.67138540      -0.72579967       6.62387783
Si      -1.69915032       1.89157442       1.45473072
Si       3.01704374       3.51710017       5.89138239
Si      -1.59220558       0.20933968       2.44999293
Si      -5.27763433       4.17576603       7.69061551
Si       2.83449617       4.44060787      -0.00000000
Si       3.17670184      -2.02772896       3.76870221
22
Lattice="9.861972532611116 -0.04658169460336757 -0.8034761716514756 -4.194306777219559 8.92571917252714 0.8034761716514773 -3.511095515969638 -4.007263430941305 8.33788307182575" Properties=species:S:1:pos:R:3 unique_starting_index=6 config_type=initial n_minim_iter=11 pbc="T T T"
Si      -3.76179468       5.54725128       7.50006319
Si       2.11322863       1.75348940       5.35207058
Si       6.83024174       2.99795968      -0.37143700
Si      -0.86729184      -0.55574590       4.19359427
Si       7.05168021      -1.39878671       2.18233632
Si      -1.08997369       3.84179414       1.64129605
Si       2.01762361       3.85121619       4.14428879
Si      -3.66743303       3.45031815       8.70932007
Si      -1.02165351       6.00295539       2.70459228
Si       0.96118161       6.53252481       4.09102488
Si       1.77900455       3.95810909       1.71900739
Si       1.90857184       6.18494449       0.63008582
Si       2.00957662      -0.38511909       4.24685818
Si       2.36403575      -2.40661300       5.63329079
Si       1.29543581       0.32787686       7.70779725
Si      -0.66987172      -0.72718232       6.61887567
Si      -1.69764852       1.89088591       1.45332582
Si       3.01549076       3.51635883       5.88952648
Si      -1.59114386       0.20839187       2.44835658
Si      -5.27553044       4.17469319       7.68803341
Si       2.83383288       4.43956874      -0.00000000
Si       3.17543851      -2.02692256       3.76720345
22
Lattice="9.786340843904801 -0.04286221071939805 -0.8055559752173566 -4.159090807745911 8.858683194194885 0.8055559752173591 -3.4926407630051197 -3.974486153568035 8.272130621979233" Properties=species:S:1:pos:R:3 unique_starting_index=6 config_type=initial n_minim_iter=12 pbc="T T T"
Si      -3.70924854       5.56257910       7.42992923
Si       2.07455077       1.68475209       5.31394581
Si       6.73003876       2.98879917      -0.40469639
Si      -0.82805545      -0.55222683       4.20737581
Si       6.94843893      -1.42631236       2.15262883
Si      -1.04452261       3.86165084       1.64775736
Si       1.98233545       3.85774804       4.06475481
Si      -3.61510022       3.38834930       8.67682701
Si      -0.99516648       5.94203694       2.64917523
Si       0.98743818       6.47066199       4.03592169
Si       1.73684632       3.93817264       1.73999415
Si       1.87171219       6.16620468       0.65489500
Si       1.96086407      -0.35457099       4.23620893
Si       2.31608277      -2.37545826       5.62295538
Si       1.31241109       0.31933072       7.61723562
Si      -0.65175106      -0.74103836       6.53213647
Si      -1.67438373       1.87910319       1.43219580
Si       2.97432776       3.49500903       5.84972393
Si      -1.57472420       0.19484351       2.42240669
Si      -5.24234213       4.15657615       7.64549079
Si       2.81362502       4.40791050      -0.00000000
Si       3.14685004      -2.00867418       3.73328732
22
Lattice="9.814477930532215 -0.055376691477185186 -0.7380278972009622 -4.182288286055259 8.878936215515246 0.7380278972009638 -3.4381900291885104 -4.01468852316951 8.302581176298702" Properties=species:S:1:pos:R:3 unique_starting_index=6 config_type=initial n_minim_iter=13 pbc="T T T"
Si      -3.64920762       5.60716179       7.39317664
Si       2.09606645       1.59355657       5.35485186
Si       6.68916844       2.99483311      -0.41241331
Si      -0.75306532      -0.57459410       4.27552316
Si       6.93924912      -1.49790818       2.20970142
Si      -0.99810873       3.91493184       1.64743243
Si       1.98986541       3.88388723       4.02705801
Si      -3.53796930       3.31361578       8.71499448
Si      -0.96408502       5.91880924       2.57254313
Si       1.05850881       6.43957628       3.99722508
Si       1.70746075       3.94416550       1.78758223
Si       1.84232799       6.20861687       0.68288902
Si       1.95719650      -0.34339614       4.30535609
Si       2.33637894      -2.39724736       5.73003804
Si       1.41770317       0.27033156       7.61969216
Si      -0.57949267      -0.80537191       6.51499894
Si      -1.66199939       1.92583043       1.38855715
Si       2.97215716       3.44720801       5.86547214
Si      -1.56271767       0.13254726       2.43710904
Si      -5.17391881       4.16753301       7.65205192
Si       2.81609482       4.41177977      -0.00000000
Si       3.18814395      -2.03503260       3.78227664
22
Lattice="9.534430268253697 0.02778805780517905 -0.8235849586060279 -3.9889487277452407 8.659931914499607 0.8235849586060308 -3.466953465873898 -3.9007352421438406 8.02177805330919" Properties=species:S:1:pos:R:3 unique_starting_index=6 config_type=initial n_minim_iter=14 pbc="T T T"
Si      -3.57611517       5.51120437       7.21639799
Si       1.98738800       1.61663577       5.15605460
Si       6.52592406       2.98615962      -0.45172025
Si      -0.78421283      -0.53743102       4.12765471
Si       6.69712752      -1.38965053       2.04213849
Si      -0.95134420       3.83577986       1.62896501
Si       1.92121636       3.84939479       3.89412334
Si      -3.50587144       3.27584608       8.47349830
Si      -0.91117335       5.80570632       2.53689761
Si       1.03782457       6.34092159       3.89177057
Si       1.67186653       3.89017750       1.73369959
Si       1.83582767       6.09828791       0.68384403
Si       1.84765645      -0.28973983       4.13000748
Si       2.18274847      -2.28291860       5.48488044
Si       1.29160227       0.33193838       7.33793402
Si      -0.64224032      -0.74643432       6.28807846
Si      -1.61459035       1.88250495       1.37117255
Si       2.84795659       3.44395728       5.64794190
Si      -1.54213918       0.13247544       2.37383615
Si      -5.06860118       4.08724375       7.47419046
Si       2.77274077       4.34385999      -0.00000000
Si       3.03373840      -1.93647359       3.59909655
22
Lattice="9.678091397204732 0.01524401738553418 -0.8142639054282574 -4.06081056443555 8.78495890898092 0.8142639054282598 -3.4949962306713216 -3.9619918659032387 8.149621646586262" Properties=species:S:1:pos:R:3 unique_starting_index=6 config_type=initial n_minim_iter=15 pbc="T T T"
Si      -3.62183686       5.58306937       7.31681460
Si       2.02704969       1.62779563       5.24258179
Si       6.61924161       3.01896668      -0.44908994
Si      -0.78456696      -0.55042113       4.19449104
Si       6.80617024      -1.42277746       2.09277595
Si      -0.96681386       3.88833460       1.64707094
Si       1.95333927       3.89483086       3.95513060
Si      -3.54344472       3.31304573       8.59871158
Si      -0.92722592       5.88413982       2.56615112
Si       1.05404102       6.42069683       3.94750225
Si       1.69471800       3.93917404       1.76025709
Si       1.85640467       6.17988378       0.69094446
Si       1.88514665      -0.30270057       4.20211939
Si       2.23260745      -2.32571395       5.58347052
Si       1.32890802       0.32369940       7.45867718
Si      -0.63546148      -0.76633509       6.38936456
Si      -1.63813918       1.90860968       1.38686319
Si       2.89991701       3.47887374       5.74189030
Si      -1.56038707       0.13305009       2.40773134
Si      -5.13491296       4.14064461       7.57702236
Si       2.80864042       4.40010147      -0.00000000
Si       3.09154758      -1.97337392       3.66767887
22
Lattice="9.68620696974777 0.010568299748047152 -0.7930395283794935 -4.0684684789338394 8.790351607624803 0.7930395283794952 -3.477334679957909 -3.9737700120691155 8.158978138104334" Properties=species:S:1:pos:R:3 unique_starting_index=6 config_type=initial n_minim_iter=16 pbc="T T T"
Si      -3.61205438       5.57791391       7.31070934
Si       2.03981768       1.61906139       5.25278648
Si       6.62235130       3.01733638      -0.43974325
Si      -0.77448708      -0.55670534       4.20034915
Si       6.81864940      -1.43132734       2.11315213
Si      -0.96560509       3.88865185       1.64130833
Si       1.96151457       3.89026692       3.95862898
Si      -3.52857117       3.30340186       8.59872138
Si      -0.92535868       5.88412057       2.55877748
Si       1.06018222       6.41661330       3.94591797
Si       1.69772211       3.93773163       1.76073273
Si       1.85624590       6.18051908       0.68763616
Si       1.89651868      -0.31062756       4.21306017
Si       2.24946540      -2.33580651       5.60020065
Si       1.34721266       0.31204472       7.47134197
Si      -0.62037306      -0.77599562       6.39824540
Si      -1.63738104       1.90839016       1.38235128
Si       2.91411314       3.47005232       5.75200395
Si      -1.55670382       0.13043462       2.40697418
Si      -5.12542764       4.13485442       7.56966638
Si       2.80886924       4.40045996      -0.00000000
Si       3.10443614      -1.98160085       3.68296930
22
Lattice="9.68498805030293 0.006320294008119099 -0.7698647849130604 -4.071808459492897 8.787457502021237 0.769864784913062 -3.4555208547787246 -3.9826679951435593 8.160236303583655" Properties=species:S:1:pos:R:3 unique_starting_index=6 config_type=initial n_minim_iter=17 pbc="T T T"
Si      -3.59779986       5.56750152       7.29673219
Si       2.05097605       1.60822635       5.25834353
Si       6.61867998       3.01336579      -0.43000523
Si      -0.76257691      -0.56301978       4.20256557
Si       6.82471849      -1.43891383       2.13202798
Si      -0.96257721       3.88540558       1.63336889
Si       1.96802759       3.88237150       3.95767073
Si      -3.50881319       3.28950211       8.59024153
Si      -0.92165270       5.87889461       2.54821550
Si       1.06582346       6.40582071       3.93998233
Si       1.69908754       3.93289870       1.75939115
Si       1.85461442       6.17546972       0.68388489
Si       1.90616800      -0.31895250       4.22025397
Si       2.26497872      -2.34354320       5.61202080
Si       1.36513333       0.29954103       7.47635140
Si      -0.60351782      -0.78568984       6.40084515
Si      -1.63468574       1.90625125       1.37619123
Si       2.92636545       3.45762393       5.75668486
Si      -1.55132163       0.12741756       2.40355144
Si      -5.11002866       4.12460659       7.55390985
Si       2.80658979       4.39688890      -0.00000000
Si       3.11473360      -1.98817385       3.69518576
22
Lattice="9.685909566324456 0.005015996026438785 -0.763991848241266 -4.0733795003626785 8.787744234629109 0.7639918482412663 -3.4502456966417534 -3.9853191126527125 8.161714834184107" Properties=species:S:1:pos:R:3 unique_starting_index=6 config_type=initial n_minim_iter=18 pbc="T T T"
Si      -3.59489149       5.56688108       7.29454882
Si       2.05317740       1.60486910       5.26143112
Si       6.61726275       3.01284382      -0.42903223
Si      -0.75812442      -0.56515133       4.20495788
Si       6.82694316      -1.44228596       2.13629186
Si      -0.96066034       3.88541803       1.63115786
Si       1.96884522       3.88184403       3.95675695
Si      -3.50341481       3.28534573       8.59074706
Si      -0.91991274       5.87916383       2.54536620
Si       1.06694985       6.40228969       3.93866055
Si       1.69852536       3.93270093       1.75941710
Si       1.85419547       6.17486159       0.68425235
Si       1.90776611      -0.32206854       4.22305428
Si       2.26976552      -2.34450273       5.61634863
Si       1.37003327       0.29625387       7.47746248
Si      -0.59818537      -0.78893414       6.40229773
Si      -1.63390194       1.90593716       1.37490777
Si       2.92982478       3.45451350       5.75899306
Si      -1.55032423       0.12659469       2.40272177
Si      -5.10693943       4.12282091       7.55079891
Si       2.80626503       4.39638012      -0.00000000
Si       3.11783193      -1.99015155       3.69886149
22
Lattice="9.680711807826937 0.0048426052311128474 -0.7645157895524927 -4.0713484320763165 8.782956592267512 0.764515789552494 -3.4491039907215306 -3.9825566921963893 8.157426849450195" Properties=species:S:1:pos:R:3 unique_starting_index=6 config_type=initial n_minim_iter=19 pbc="T T T"
Si      -3.59405104       5.56679007       7.29204879
Si       2.04988494       1.60303409       5.26014979
Si       6.61152725       3.01156230      -0.43192277
Si      -0.75547135      -0.56539345       4.20481492
Si       6.82260884      -1.44345594       2.13276127
Si      -0.95792396       3.88411681       1.62989384
Si       1.96548363       3.88194996       3.95261192
Si      -3.50102076       3.28236621       8.58934961
Si      -0.91785055       5.87780975       2.54354433
Si       1.06533597       6.39637524       3.93619373
Si       1.69550759       3.93182470       1.75865897
Si       1.85293883       6.17148386       0.68632463
Si       1.90422256      -0.32326008       4.22123311
Si       2.26881078      -2.34043988       5.61388252
Si       1.36864026       0.29645437       7.47110221
Si      -0.59656791      -0.78927791       6.39876787
Si      -1.63262585       1.90509089       1.37460957
Si       2.92756282       3.45249786       5.75623604
Si      -1.55005849       0.12645678       2.40119081
Si      -5.10507152       4.12159688       7.54733306
Si       2.80468169       4.39389960      -0.00000000
Si       3.11580391      -1.98885704       3.69645553
22
Lattice="9.689053564132887 0.0038505266205896027 -0.7669599342325033 -4.075760318223475 8.790105324942735 0.7669599342325032 -3.4531291351640867 -3.98431996153473 8.164992036487615" Properties=species:S:1:pos:R:3 unique_starting_index=6 config_type=initial n_minim_iter=20 pbc="T T T"
Si      -3.59919199       5.57422470       7.30055571
Si       2.04917253       1.60366830       5.26603919
Si       6.61536347       3.01350482      -0.43531611
Si      -0.75469786      -0.56594584       4.21019166
Si       6.82780064      -1.44659046       2.13199291
Si      -0.95745297       3.88796927       1.63139626
Si       1.96456165       3.88681238       3.95480038
Si      -3.50489905       3.28490043       8.60030815
Si      -0.91810375       5.88399277       2.54577484
Si       1.06465484       6.39945376       3.93973389
Si       1.69469245       3.93582428       1.76042564
Si       1.85380160       6.17611902       0.68916368
Si       1.90327656      -0.32434506       4.22525814
Si       2.27050057      -2.33982966       5.61921719
Si       1.36845621       0.29742516       7.47582835
Si      -0.59662204      -0.79009666       6.40456639
Si      -1.63406470       1.90705711       1.37645579
Si       2.92854856       3.45515345       5.76153048
Si      -1.55208989       0.12670568       2.40346155
Si      -5.11111931       4.12650504       7.55549617
Si       2.80664662       4.39697793      -0.00000000
Si       3.11796221      -1.99023471       3.69901605
22
Lattice="9.680767953142272 0.004153655576720476 -0.7657070592333648 -4.071996983975252 8.78271745975799 0.7657070592333651 -3.4498119283356874 -3.9814516952737984 8.157844860826607" Properties=species:S:1:pos:R:3 unique_starting_index=6 config_type=initial n_minim_iter=21 pbc="T T T"
Si      -3.59561383       5.56998306       7.29399451
Si       2.04730531       1.60183215       5.26199379
Si       6.60926924       3.01131949      -0.43543506
Si      -0.75304733      -0.56590972       4.20700561
Si       6.82195288      -1.44588579       2.13014401
Si      -0.95572628       3.88490944       1.62955740
Si       1.96269445       3.88410824       3.95083925
Si      -3.50099828       3.28132084       8.59327991
Si      -0.91644089       5.87953545       2.54300586
Si       1.06400671       6.39329200       3.93593401
Si       1.69294873       3.93293853       1.75876014
Si       1.85249676       6.17097934       0.68908083
Si       1.90127761      -0.32465889       4.22191084
Si       2.26907466      -2.33732970       5.61483899
Si       1.36766081       0.29694598       7.46876403
Si      -0.59518823      -0.79002499       6.39908472
Si      -1.63242779       1.90551141       1.37510888
Si       2.92643530       3.45201752       5.75659474
Si      -1.55072742       0.12633683       2.40125012
Si      -5.10612996       4.12281944       7.54844303
Si       2.80438548       4.39343556      -0.00000000
Si       3.11547801      -1.98864902       3.69606890
22
Lattice="9.68190718468661 0.004004057564327808 -0.7661633432584375 -4.072612312744431 8.783687819785374 0.7661633432584388 -3.4504584889930294 -3.98161657531987 8.158885628368015" Properties=species:S:1:pos:R:3 unique_starting_index=6 config_type=initial n_minim_iter=22 pbc="T T T"
Si      -3.59644606       5.57140215       7.29535080
Si       2.04689863       1.60178145       5.26300253
Si       6.60956538       3.01160087      -0.43633239
Si      -0.75262696      -0.56607086       4.20794815
Si       6.82257079      -1.44659049       2.12971975
Si      -0.95535060       3.88555751       1.62969817
Si       1.96224864       3.88507757       3.95093748
Si      -3.50151430       3.28154304       8.59521801
Si      -0.91624084       5.88062178       2.54319365
Si       1.06382173       6.39335122       3.93634988
Si       1.69254102       3.93366217       1.75897134
Si       1.85263248       6.17158449       0.68981384
Si       1.90076264      -0.32496662       4.22253575
Si       2.26932923      -2.33685576       5.61569198
Si       1.36750602       0.29715898       7.46907178
Si      -0.59500676      -0.79025502       6.39991428
Si      -1.63260135       1.90586391       1.37539963
Si       2.92644809       3.45234523       5.75729955
Si      -1.55108212       0.12632152       2.40158607
Si      -5.10699904       4.12361590       7.54964934
Si       2.80464744       4.39384594      -0.00000000
Si       3.11572435      -1.98880625       3.69636114
22
Lattice="9.681273289888951 0.0038977652089964574 -0.7664272717324062 -4.072441845265033 8.783068092815029 0.7664272717324073 -3.4504492450575057 -3.9811115604186584 8.158408497968766" Properties=species:S:1:pos:R:3 unique_starting_index=6 config_type=initial n_minim_iter=23 pbc="T T T"
Si      -3.59660291       5.57219506       7.29544025
Si       2.04587514       1.60123105       5.26329745
Si       6.60839470       3.01141344      -0.43756066
Si      -0.75162190      -0.56628863       4.20835695
Si       6.82187781      -1.44735186       2.12868378
Si      -0.95438564       3.88563435       1.62939551
Si       1.96117379       3.88567652       3.95005154
Si      -3.50118219       3.28090728       8.59596916
Si      -0.91552070       5.88092050       2.54269931
Si       1.06343104       6.39182038       3.93590359
Si       1.69154379       3.93388725       1.75880314
Si       1.85249744       6.17106032       0.69077552
Si       1.89954782      -0.32546049       4.22250490
Si       2.26930625      -2.33557178       5.61570919
Si       1.36709667       0.29732082       7.46763297
Si      -0.59437350      -0.79055978       6.39960535
Si      -1.63241105       1.90594710       1.37542733
Si       2.92592444       3.45196390       5.75693807
Si      -1.55119829       0.12619101       2.40147042
Si      -5.10682400       4.12370883       7.54940843
Si       2.80441572       4.39348293      -0.00000000
Si       3.11541202      -1.98860689       3.69599061
22
Lattice="9.671507860625045 0.0015012391433334856 -0.7728825702994466 -4.070504212805098 8.773201354430842 0.7728825702994467 -3.4519766253348685 -3.9715066911914727 8.151466493784213" Properties=species:S:1:pos:R:3 unique_starting_index=6 config_type=initial n_minim_iter=24 pbc="T T T"
Si      -3.60183002       5.59257897       7.30100448
Si       2.02368809       1.58971602       5.27221561
Si       6.58580751       3.00827720      -0.46537853
Si      -0.72956776      -0.57144206       4.21876663
Si       6.80948137      -1.46511636       2.10636831
Si      -0.93328540       3.88921319       1.62334458
Si       1.93785902       3.90085272       3.93269986
Si      -3.49604472       3.26870396       8.61684502
Si      -0.89980796       5.89025379       2.53252824
Si       1.05539500       6.36032711       3.92768078
Si       1.66981787       3.94072311       1.75551165
Si       1.85063333       6.16202244       0.71276665
Si       1.87283768      -0.33640392       4.22378571
Si       2.26962932      -2.30778515       5.61893825
Si       1.35815627       0.30142974       7.43869984
Si      -0.58055343      -0.79778346       6.39595484
Si      -1.62922006       1.90911004       1.37663156
Si       2.91522609       3.44496309       5.75098400
Si      -1.55457159       0.12314445       2.40048249
Si      -5.10488825       4.12767300       7.54771750
Si       2.80050182       4.38735130      -0.00000000
Si       3.10976562      -1.98500272       3.68929196
