6
Lattice="4.3906682719209185 -2.2265448649763577e-16 3.711101245478505e-14 2.2309891066083634e-16 4.399432160330613 2.542856385518224e-14 -4.96989399195337e-14 -3.3986008077675594e-14 5.8799678105970035" Properties=species:S:1:pos:R:3 unique_starting_index=12 config_type=initial n_minim_iter=1 energy=-974.2860036669705 free_energy=-974.2860036669705 pbc="T T T"
Si       0.37103914       2.19971608       4.27861984
Si       0.37103914       2.19971608       1.60134797
Si       2.56528219       1.13821759       2.93998391
Si       2.56528219       3.26121457       2.93998391
Si       0.17870299      -0.00000000       0.00000000
Si       2.38471926      -0.00000000       0.00000000
6
Lattice="4.403485523470245 -2.2331234000425294e-16 3.742814489098012e-14 2.2299811298763246e-16 4.397599646455085 2.5384420903409757e-14 -4.9186721138949745e-14 -3.387105471220068e-14 5.852359138839373" Properties=species:S:1:pos:R:3 unique_starting_index=12 config_type=initial n_minim_iter=2 stress="-0.0030565788273075466 1.7048381589641386e-18 -3.2897984338217445e-17 1.7048381589641386e-18 -0.01603409407491355 -3.53042890206123e-17 -3.2897984338217445e-17 -3.53042890206123e-17 0.0028644886228505638" pbc="T T T"
Si       0.37267932       2.19879982       4.25797350
Si       0.37267932       2.19879982       1.59438564
Si       2.57199461       1.13975087       2.92617957
Si       2.57199461       3.25784878       2.92617957
Si       0.17902851      -0.00000000       0.00000000
Si       2.39231512      -0.00000000       0.00000000
6
Lattice="4.445535539157372 -2.2522168230307836e-16 3.936548806288953e-14 2.247259370581583e-16 4.427283009059222 2.5850159419266626e-14 -4.6419758875922963e-14 -3.300865318280947e-14 5.76910165813633" Properties=species:S:1:pos:R:3 unique_starting_index=12 config_type=initial n_minim_iter=3 stress="-0.0014510651342248724 -5.351013300246978e-18 -2.2852678743667806e-16 -5.351013300246978e-18 -0.00012483845140670024 -7.774800148590375e-17 -2.2852678743667806e-16 -7.774800148590375e-17 -0.0017925072773983851" pbc="T T T"
Si       0.37813740       2.21364150       4.19560792
Si       0.37813740       2.21364150       1.57349374
Si       2.59387071       1.15075249       2.88455083
Si       2.59387071       3.27653052       2.88455083
Si       0.18023118      -0.00000000       0.00000000
Si       2.41723741      -0.00000000       0.00000000
6
Lattice="4.4613695880835955 -2.259488770469256e-16 3.973000343897521e-14 2.25151997674803e-16 4.434178796190736 2.5984518210500692e-14 -4.615927697183759e-14 -3.291834422588622e-14 5.775353752724641" Properties=species:S:1:pos:R:3 unique_starting_index=12 config_type=initial n_minim_iter=4 stress="0.002438710342979762 -2.35112128690552e-17 -2.7175307846770354e-17 -2.35112128690552e-17 0.0009006129826024144 -9.470665644922649e-17 -2.7175307846770354e-17 -9.470665644922649e-17 0.002022731915195447" pbc="T T T"
Si       0.38037334       2.21708940       4.20083621
Si       0.38037334       2.21708940       1.57451755
Si       2.60121160       1.15447569       2.88767688
Si       2.60121160       3.27970310       2.88767688
Si       0.18359763      -0.00000000       0.00000000
Si       2.42514023      -0.00000000       0.00000000
6
Lattice="4.462288149434621 -2.25907915115772e-16 4.008033231092582e-14 2.2570776529987584e-16 4.443420270281017 2.6156494245737757e-14 -4.559541915684587e-14 -3.268940307732694e-14 5.763512227639111" Properties=species:S:1:pos:R:3 unique_starting_index=12 config_type=initial n_minim_iter=5 stress="7.649424742627655e-05 1.3244798016413342e-17 -1.9768221038457086e-16 1.3244798016413342e-17 0.0006655374984903436 -2.0657728167002075e-16 -1.9768221038457086e-16 -2.0657728167002075e-16 0.0009900910708200625" pbc="T T T"
Si       0.38182988       2.22171014       4.19318897
Si       0.38182988       2.22171014       1.57032326
Si       2.59838521       1.15933163       2.88175611
Si       2.59838521       3.28408864       2.88175611
Si       0.18933393      -0.00000000       0.00000000
Si       2.42390852      -0.00000000       0.00000000
6
Lattice="4.471824520349772 -2.2629003136396656e-16 4.061777357392712e-14 2.260319160125344e-16 4.447798182836323 2.621386478706961e-14 -4.479526995723152e-14 -3.2525118905549687e-14 5.74300497158955" Properties=species:S:1:pos:R:3 unique_starting_index=12 config_type=initial n_minim_iter=6 stress="-0.00023374358453309328 -2.43243859468694e-17 -7.472038684027199e-17 -2.43243859468694e-17 -0.0006871236664935745 -1.3713222177275314e-16 -7.472038684027199e-17 -1.3713222177275314e-16 -0.0001744434926509549" pbc="T T T"
Si       0.38449066       2.22389909       4.18039517
Si       0.38449066       2.22389909       1.56260980
Si       2.59893036       1.16130845       2.87150249
Si       2.59893036       3.28648974       2.87150249
Si       0.19639715      -0.00000000       0.00000000
Si       2.42875628      -0.00000000       0.00000000
6
Lattice="4.489815342752266 -2.269666168475149e-16 4.1831372945272196e-14 2.26780698422516e-16 4.457886495175593 2.6383920518725234e-14 -4.2982534112575135e-14 -3.2129647378978837e-14 5.701384495349265" Properties=species:S:1:pos:R:3 unique_starting_index=12 config_type=initial n_minim_iter=7 stress="0.00011312583003839325 -3.1537156322665704e-17 -4.9805353885038153e-17 -3.1537156322665704e-17 -0.0017835838206962066 -1.6308407861654913e-16 -4.9805353885038153e-17 -1.6308407861654913e-16 -0.00171644809459322" pbc="T T T"
Si       0.39079943       2.22894325       4.15672234
Si       0.39079943       2.22894325       1.54466215
Si       2.59477910       1.16539551       2.85069225
Si       2.59477910       3.29249099       2.85069225
Si       0.21140452      -0.00000000       0.00000000
Si       2.44400080      -0.00000000       0.00000000
6
Lattice="4.468787445178697 -2.2569380591666365e-16 4.267872222999374e-14 2.2708177399712686e-16 4.45982938576121 2.6098628568880685e-14 -4.16612189201336e-14 -3.254296652656423e-14 5.70431803425994" Properties=species:S:1:pos:R:3 unique_starting_index=12 config_type=initial n_minim_iter=8 stress="0.001225777966772392 -6.488436797219314e-17 -2.9507565722996093e-16 -6.488436797219314e-17 0.001886252294957201 -1.5954937958478381e-16 -2.9507565722996093e-16 -1.5954937958478381e-16 -0.0008090528883554858" pbc="T T T"
Si       0.39323131       2.22991469       4.16890798
Si       0.39323131       2.22991469       1.53541006
Si       2.56285964       1.16516552       2.85215902
Si       2.56285964       3.29466386       2.85215902
Si       0.21683718      -0.00000000       0.00000000
Si       2.45714109      -0.00000000       0.00000000
6
Lattice="4.4472389123938605 -2.2458097612322533e-16 4.341949726098164e-14 2.2686015270197824e-16 4.455133381195301 2.61458656796882e-14 -4.06803460145262e-14 -3.258256032660309e-14 5.728107973185987" Properties=species:S:1:pos:R:3 unique_starting_index=12 config_type=initial n_minim_iter=9 stress="-0.0009095513067038542 5.875722397574834e-17 1.202524366516877e-16 5.875722397574834e-17 0.00277645438586378 -1.8390749221939976e-16 1.202524366516877e-16 -1.8390749221939976e-16 -0.0005295365562721984" pbc="T T T"
Si       0.39210545       2.22756669       4.18839957
Si       0.39210545       2.22756669       1.53970841
Si       2.54393477       1.16347920       2.86405399
Si       2.54393477       3.29165418       2.86405399
Si       0.21998453      -0.00000000       0.00000000
Si       2.45269264      -0.00000000       0.00000000
6
Lattice="4.441903585517126 -2.2430740686233737e-16 4.3669988682620634e-14 2.2652875183582816e-16 4.448533422793976 2.6013113960125062e-14 -4.0486986669068135e-14 -3.2826472507707516e-14 5.747988732178724" Properties=species:S:1:pos:R:3 unique_starting_index=12 config_type=initial n_minim_iter=10 stress="-0.0003686553236955096 -3.025997890428667e-17 1.9611205697436933e-16 -3.025997890428667e-17 0.0013726238138689825 -1.7859029078496702e-16 1.9611205697436933e-16 -1.7859029078496702e-16 0.0006521009246821724" pbc="T T T"
Si       0.39061495       2.22426671       4.20005865
Si       0.39061495       2.22426671       1.54793008
Si       2.54256639       1.16126021       2.87399437
Si       2.54256639       3.28727321       2.87399437
Si       0.21994898      -0.00000000       0.00000000
Si       2.44819487      -0.00000000       0.00000000
6
Lattice="4.437302023954042 -2.2406333541014912e-16 4.386256921041757e-14 2.2603953489687143e-16 4.438652251687408 2.5994834621007892e-14 -4.033933280346979e-14 -3.2867858313506366e-14 5.763705568250097" Properties=species:S:1:pos:R:3 unique_starting_index=12 config_type=initial n_minim_iter=11 stress="-0.0008393088006889192 7.795746184503079e-19 1.660647484435959e-16 7.795746184503079e-19 -0.0023330484461278884 -9.371335945151668e-17 1.660647484435959e-16 -9.371335945151668e-17 0.0005480219647355073" pbc="T T T"
Si       0.39038500       2.21932613       4.20832672
Si       0.39038500       2.21932613       1.55537885
Si       2.53576956       1.15756997       2.88185278
Si       2.53576956       3.28108228       2.88185278
Si       0.22457055      -0.00000000       0.00000000
Si       2.44878558      -0.00000000       0.00000000
6
Lattice="4.445119226933885 -2.244265654656979e-16 4.4147160476192673e-14 2.256264653969982e-16 4.429780077338158 2.5939273358207067e-14 -4.006650053484632e-14 -3.289473547341345e-14 5.7671507905395005" Properties=species:S:1:pos:R:3 unique_starting_index=12 config_type=initial n_minim_iter=12 stress="0.0006665529392652536 1.068197392106693e-17 2.858295990496131e-16 1.068197392106693e-17 -0.005023358891702895 -2.445868481896985e-16 2.858295990496131e-16 -2.445868481896985e-16 0.0002806055022344148" pbc="T T T"
Si       0.39131344       2.21489004       4.20463977
Si       0.39131344       2.21489004       1.56251102
Si       2.53573674       1.15365680       2.88357540
Si       2.53573674       3.27612328       2.88357540
Si       0.23060520      -0.00000000       0.00000000
Si       2.45597938      -0.00000000       0.00000000
6
Lattice="4.443617532528356 -2.243046564895913e-16 4.434108447023396e-14 2.253939544537452e-16 4.4242729326002666 2.58477974708496e-14 -3.985957115515207e-14 -3.301431172286914e-14 5.7738882309455075" Properties=species:S:1:pos:R:3 unique_starting_index=12 config_type=initial n_minim_iter=13 stress="-6.362824062120153e-05 6.668004268274859e-17 1.076294548503456e-16 6.668004268274859e-17 -0.0030786776557730705 -1.834577498493828e-16 1.076294548503456e-16 -1.834577498493828e-16 -0.0003255580940321713" pbc="T T T"
Si       0.39145929       2.21213647       4.20510245
Si       0.39145929       2.21213647       1.56878578
Si       2.52925384       1.15052134       2.88694412
Si       2.52925384       3.27375159       2.88694412
Si       0.23498413      -0.00000000       0.00000000
Si       2.46138925      -0.00000000       0.00000000
6
Lattice="4.446236870287416 -2.2438428747091246e-16 4.457807630649191e-14 2.2560946857773756e-16 4.427474468482681 2.5886854623198458e-14 -3.954674144734368e-14 -3.2974928795590696e-14 5.771888367416181" Properties=species:S:1:pos:R:3 unique_starting_index=12 config_type=initial n_minim_iter=14 stress="0.00013147760522296483 3.3821349576971094e-17 2.658270151971618e-17 3.3821349576971094e-17 -0.00014169981203264727 -2.7544636190552274e-16 2.658270151971618e-17 -2.7544636190552274e-16 -0.00010899809657276198" pbc="T T T"
Si       0.39146362       2.21373723       4.20233131
Si       0.39146362       2.21373723       1.56955706
Si       2.53029446       1.15155531       2.88594418
Si       2.53029446       3.27591916       2.88594418
Si       0.23553123      -0.00000000       0.00000000
Si       2.46378494      -0.00000000       0.00000000
6
Lattice="4.444200142345809 -2.242302905331062e-16 4.476343293954383e-14 2.256163600203664e-16 4.426614084892679 2.5893304534581613e-14 -3.931900486470877e-14 -3.298270562788323e-14 5.775815298637733" Properties=species:S:1:pos:R:3 unique_starting_index=12 config_type=initial n_minim_iter=15 stress="-3.945955187022394e-05 -2.2392392405087858e-17 2.6341099642714043e-16 -2.2392392405087858e-17 0.00016055899676470435 -9.413054346878878e-17 2.6341099642714043e-16 -9.413054346878878e-17 6.400822810666711e-05" pbc="T T T"
Si       0.39067834       2.21330704       4.20460549
Si       0.39067834       2.21330704       1.57120981
Si       2.52981196       1.15111922       2.88790765
Si       2.52981196       3.27549486       2.88790765
Si       0.23500959      -0.00000000       0.00000000
Si       2.46292883      -0.00000000       0.00000000
6
Lattice="4.442264009081148 -2.2401851665226055e-16 4.519075947512129e-14 2.2594183303376744e-16 4.430820722410305 2.5871356036692167e-14 -3.8773945116897465e-14 -3.307013864788174e-14 5.78025523377137" Properties=species:S:1:pos:R:3 unique_starting_index=12 config_type=initial n_minim_iter=16 stress="-0.0006845555625430001 -8.137093084600384e-17 1.0662636040633694e-16 -8.137093084600384e-17 0.0018664589449226443 -1.0437039632307829e-16 1.0662636040633694e-16 -1.0437039632307829e-16 0.000873079609739518" pbc="T T T"
Si       0.38525760       2.21541036       4.20761650
Si       0.38525760       2.21541036       1.57263874
Si       2.53078038       1.15305741       2.89012762
Si       2.53078038       3.27776332       2.89012762
Si       0.23822903      -0.00000000       0.00000000
Si       2.46489401      -0.00000000       0.00000000
6
Lattice="4.472517539875437 -2.2528481480572343e-16 4.6230525341395646e-14 2.273056609039703e-16 4.452373040169666 2.6073388490120838e-14 -3.738448922809389e-14 -3.2809640974455405e-14 5.753714343077743" Properties=species:S:1:pos:R:3 unique_starting_index=12 config_type=initial n_minim_iter=17 stress="0.0005952189411393958 -8.700564559649209e-17 9.197220121421974e-17 -8.700564559649209e-17 0.004676082838836397 -2.5579442034829945e-16 9.197220121421974e-17 -2.5579442034829945e-16 0.002137085392854701" pbc="T T T"
Si       0.34170873       2.22618652       4.18220089
Si       0.34170873       2.22618652       1.57151345
Si       2.55527543       1.16278648       2.87685717
Si       2.55527543       3.28958656       2.87685717
Si       0.28395813      -0.00000000       0.00000000
Si       2.51540058      -0.00000000       0.00000000
6
Lattice="4.482958165160845 -2.2556770246947193e-16 4.6970749743249585e-14 2.2786346857027075e-16 4.4584742268495345 2.6001705538743226e-14 -3.6340528263117827e-14 -3.286852575591878e-14 5.739532677364687" Properties=species:S:1:pos:R:3 unique_starting_index=12 config_type=initial n_minim_iter=18 stress="0.0015481115057032612 1.447637863227225e-17 1.3241695823487725e-16 1.447637863227225e-17 0.0045769584923541565 -2.1407820082979655e-16 1.3241695823487725e-16 -2.1407820082979655e-16 0.002192534101798018" pbc="T T T"
Si       0.32502948       2.22923711       4.17162809
Si       0.32502948       2.22923711       1.56790459
Si       2.56155499       1.16559293       2.86976634
Si       2.56155499       3.29288130       2.86976634
Si       0.30271053      -0.00000000       0.00000000
Si       2.53750778      -0.00000000       0.00000000
6
Lattice="4.48290074467764 -2.2543024965344147e-16 4.739930120970196e-14 2.2765010539530815e-16 4.451553214185336 2.5911161274568326e-14 -3.555754806224666e-14 -3.282141315687096e-14 5.7197951550892245" Properties=species:S:1:pos:R:3 unique_starting_index=12 config_type=initial n_minim_iter=19 stress="0.00047308876989736264 2.1140690099062757e-17 1.188873341767628e-16 2.1140690099062757e-17 -0.0015454617485523572 -2.2521985579377853e-16 1.188873341767628e-16 -2.2521985579377853e-16 -0.00047300986904439145" pbc="T T T"
Si       0.32228381       2.22577661       4.16371281
Si       0.32228381       2.22577661       1.55608234
Si       2.55458842       1.16256901       2.85989758
Si       2.55458842       3.28898420       2.85989758
Si       0.30938275      -0.00000000       0.00000000
Si       2.55014970      -0.00000000       0.00000000
6
Lattice="4.481286141630652 -2.252058595129598e-16 4.7815705486561936e-14 2.279858876625021e-16 4.455406226359263 2.5853701188826405e-14 -3.500854113316301e-14 -3.293993534420947e-14 5.721884727926124" Properties=species:S:1:pos:R:3 unique_starting_index=12 config_type=initial n_minim_iter=20 stress="-2.257848504606427e-05 2.332820727195824e-17 1.3032912543329364e-16 2.332820727195824e-17 -8.469302519000816e-05 -2.5717677760876756e-16 1.3032912543329364e-16 -2.5717677760876756e-16 -0.00016113615759700273" pbc="T T T"
Si       0.31746020       2.22770311       4.16476215
Si       0.31746020       2.22770311       1.55712258
Si       2.55598999       1.16435886       2.86094236
Si       2.55598999       3.29104736       2.86094236
Si       0.31119155      -0.00000000       0.00000000
Si       2.55208274      -0.00000000       0.00000000
