22
Lattice="5.531975705153226 -0.6530751924880618 -1.375661986149719 -2.364663343714351 11.576875815214011 -2.317940481399046 -4.647701739982003 -5.820382776164976 10.863358075021445" Properties=species:S:1:pos:R:3 unique_starting_index=18 config_type=initial n_minim_iter=1 energy=-3585.9757874119537 free_energy=-3585.9757874119537 pbc="T T T"
Si       0.22696489      10.49199935      -1.30803560
Si      -1.53179927      -1.38726575       5.65809619
Si      -3.84113648      -3.93366849       9.51696977
Si       0.17803923      -3.13792567       8.58182813
Si      -5.43113581      -0.50805965       8.85717883
Si       4.31468638       2.27062969      -0.23337430
Si       2.41148629       1.02071109       0.05692735
Si      -2.01222773       1.73865564       8.24358436
Si      -1.76684518      -3.85741494       9.08108985
Si      -2.55657660       0.90788238       5.76092656
Si       1.19050973      -0.73616002       2.85527343
Si      -2.96634633       3.43606057       4.80797796
Si      -3.23252565      -3.05876209       6.32392889
Si      -0.76441037       7.54964613      -1.18676697
Si       1.19210948       1.19897209       3.73530567
Si       0.89767827       8.60483677      -2.00734155
Si      -0.92265666      -1.71518222       3.21101715
Si       2.57052742      -5.41468788       6.20323538
Si       0.29232405       2.77109045       2.63360810
Si      -3.23623312       2.64972360       6.76442120
Si      -1.22794113       4.10963751       3.27427520
Si      -1.51068088      -2.53839374       7.44140370
22
Lattice="5.531849612598778 -0.6530584792333656 -1.3756621308023806 -2.3645651925924067 11.576938175755076 -2.317933027178444 -4.6476440712740095 -5.820452598244342 10.863268975611117" Properties=species:S:1:pos:R:3 unique_starting_index=18 config_type=initial n_minim_iter=2 stress="-0.00013675697448732924 -1.2823853545193652e-05 -3.658156442853551e-05 -1.2823853545193652e-05 -5.5621767799183866e-05 7.23975540845936e-06 -3.658156442853551e-05 7.23975540845936e-06 -0.00011956452298857725" pbc="T T T"
Si       0.22700505      10.49207831      -1.30803927
Si      -1.53177705      -1.38731795       5.65808141
Si      -3.84112260      -3.93367796       9.51688967
Si       0.17803169      -3.13798402       8.58175258
Si      -5.43105343      -0.50812476       8.85712054
Si       4.31455614       2.27065968      -0.23347943
Si       2.41142903       1.02070795       0.05695402
Si      -2.01217677       1.73863322       8.24354832
Si      -1.76680849      -3.85743177       9.08098280
Si      -2.55652378       0.90787604       5.76089176
Si       1.19045214      -0.73625357       2.85520897
Si      -2.96625913       3.43609191       4.80792472
Si      -3.23249251      -3.05876726       6.32385749
Si      -0.76439650       7.54968126      -1.18676557
Si       1.19200561       1.19905597       3.73528063
Si       0.89767454       8.60485548      -2.00735013
Si      -0.92263654      -1.71517820       3.21102654
Si       2.57046810      -5.41475254       6.20323702
Si       0.29231472       2.77112001       2.63360169
Si      -3.23617000       2.64970767       6.76426779
Si      -1.22788339       4.10962970       3.27421852
Si      -1.51063522      -2.53842765       7.44129253
22
Lattice="5.531889658664842 -0.6530542003227257 -1.3756591604309736 -2.3645765376163688 11.576986598394978 -2.317963804964492 -4.6476619452909045 -5.820489761636016 10.863344685141142" Properties=species:S:1:pos:R:3 unique_starting_index=18 config_type=initial n_minim_iter=3 stress="3.963566306549311e-05 1.4026927402699113e-05 1.6937286237317693e-05 1.4026927402699113e-05 5.741313224800549e-05 -1.333438145708703e-05 1.6937286237317693e-05 -1.333438145708703e-05 2.9190316223151387e-05" pbc="T T T"
Si       0.22701688      10.49212527      -1.30805535
Si      -1.53177659      -1.38733074       5.65812342
Si      -3.84113707      -3.93370088       9.51695552
Si       0.17805372      -3.13800418       8.58182110
Si      -5.43107584      -0.50814002       8.85717804
Si       4.31459033       2.27067500      -0.23348016
Si       2.41144958       1.02071457       0.05696064
Si      -2.01216874       1.73863216       8.24360983
Si      -1.76680423      -3.85745389       9.08105149
Si      -2.55652944       0.90787334       5.76092995
Si       1.19046522      -0.73626401       2.85523189
Si      -2.96626537       3.43610387       4.80795024
Si      -3.23250930      -3.05878476       6.32389751
Si      -0.76440096       7.54971238      -1.18678088
Si       1.19201992       1.19906339       3.73531335
Si       0.89768462       8.60489227      -2.00736912
Si      -0.92263743      -1.71518627       3.21105359
Si       2.57049966      -5.41478111       6.20329890
Si       0.29232503       2.77113409       2.63362124
Si      -3.23617670       2.64971100       6.76430447
Si      -1.22787887       4.10964237       3.27423635
Si      -1.51062930      -2.53844836       7.44134536
22
Lattice="5.531948351476737 -0.6531087237858968 -1.3757312105699122 -2.364723208859176 11.576368182506817 -2.3178217042924554 -4.647690536739279 -5.819958541734658 10.863514095927956" Properties=species:S:1:pos:R:3 unique_starting_index=18 config_type=initial n_minim_iter=4 stress="1.6862078773024693e-05 2.2666507715472386e-05 0.0001296561804584977 2.2666507715472386e-05 -7.917912762064559e-05 2.8215585184992606e-05 0.0001296561804584977 2.8215585184992606e-05 -5.9229006793070214e-05" pbc="T T T"
Si       0.22692988      10.49154635      -1.30792734
Si      -1.53178965      -1.38716033       5.65823118
Si      -3.84116187      -3.93323143       9.51710677
Si       0.17810303      -3.13771327       8.58195556
Si      -5.43113467      -0.50791814       8.85743682
Si       4.31459339       2.27051185      -0.23357189
Si       2.41146885       1.02065342       0.05692698
Si      -2.01222056       1.73868653       8.24388211
Si      -1.76686297      -3.85706929       9.08126627
Si      -2.55661882       0.90794204       5.76107248
Si       1.19042522      -0.73626149       2.85526194
Si      -2.96634074       3.43607798       4.80807798
Si      -3.23256419      -3.05843237       6.32397475
Si      -0.76456563       7.54928323      -1.18667752
Si       1.19196071       1.19903113       3.73543394
Si       0.89757763       8.60438388      -2.00726198
Si      -0.92265300      -1.71500280       3.21114023
Si       2.57058283      -5.41450647       6.20339987
Si       0.29223834       2.77110227       2.63369069
Si      -3.23626122       2.64971839       6.76446912
Si      -1.22793574       4.10947674       3.27435268
Si      -1.51062574      -2.53829082       7.44146540
22
Lattice="5.531983568931021 -0.6531490130365637 -1.3758840034037203 -2.3647566302877263 11.576344974888022 -2.3178029452006403 -4.6478991875985685 -5.819900691431981 10.863802678842799" Properties=species:S:1:pos:R:3 unique_starting_index=18 config_type=initial n_minim_iter=5 stress="-2.573084343588992e-05 -1.0257185219754754e-05 -1.6965217256333882e-05 -1.0257185219754754e-05 3.5569475767577934e-05 -5.514381845838131e-05 -1.6965217256333882e-05 -5.514381845838131e-05 3.508375932165285e-06" pbc="T T T"
Si       0.22689082      10.49150955      -1.30795287
Si      -1.53190538      -1.38714573       5.65836063
Si      -3.84134992      -3.93316395       9.51734950
Si       0.17794378      -3.13770159       8.58209402
Si      -5.43132519      -0.50787547       8.85772817
Si       4.31458374       2.27047645      -0.23370656
Si       2.41146111       1.02063452       0.05686726
Si      -2.01242057       1.73869952       8.24408557
Si      -1.76705687      -3.85703267       9.08147528
Si      -2.55676852       0.90795499       5.76122254
Si       1.19034835      -0.73628873       2.85527815
Si      -2.96647351       3.43610452       4.80821190
Si      -3.23269568      -3.05837652       6.32414765
Si      -0.76462222       7.54925444      -1.18667500
Si       1.19185275       1.19901284       3.73547629
Si       0.89755938       8.60433832      -2.00730726
Si      -0.92272237      -1.71497898       3.21122548
Si       2.57048980      -5.41453218       6.20346525
Si       0.29214322       2.77111533       2.63371545
Si      -3.23643292       2.64973835       6.76465193
Si      -1.22803896       4.10947010       3.27442916
Si      -1.51077273      -2.53830755       7.44161421
22
Lattice="5.532078597594896 -0.6531923393995938 -1.3760210418716667 -2.364788133877339 11.576023457620252 -2.3174799402955197 -4.6481237014298005 -5.819448643368373 10.863905146150916" Properties=species:S:1:pos:R:3 unique_starting_index=18 config_type=initial n_minim_iter=6 stress="5.146251014245826e-05 1.3893866810540394e-05 -5.440253598085983e-05 1.3893866810540394e-05 4.9453792841057545e-05 0.0001153759808643372 -5.440253598085983e-05 0.0001153759808643372 -4.0716825255276924e-05" pbc="T T T"
Si       0.22689302      10.49123884      -1.30768587
Si      -1.53200716      -1.38696022       5.65845103
Si      -3.84154394      -3.93276593       9.51746038
Si       0.17782802      -3.13738803       8.58215375
Si      -5.43152555      -0.50760069       8.85798408
Si       4.31465435       2.27041461      -0.23375377
Si       2.41148482       1.02060052       0.05686408
Si      -2.01260724       1.73891394       8.24433402
Si      -1.76722828      -3.85666586       9.08156219
Si      -2.55691401       0.90809188       5.76137832
Si       1.19029337      -0.73622032       2.85528488
Si      -2.96660676       3.43618173       4.80842383
Si      -3.23285292      -3.05809704       6.32421364
Si      -0.76467762       7.54904090      -1.18646859
Si       1.19178266       1.19908174       3.73555043
Si       0.89759238       8.60405557      -2.00711609
Si      -0.92279796      -1.71483283       3.21126169
Si       2.57044603      -5.41428426       6.20340052
Si       0.29208295       2.77114883       2.63381233
Si      -3.23658385       2.64988609       6.76490090
Si      -1.22812636       4.10947443       3.27461117
Si      -1.51089230      -2.53808625       7.44166942
22
Lattice="5.53209183646923 -0.6532117110887727 -1.3760914694661621 -2.3648840269372395 11.57549113877169 -2.31754573530579 -4.648115970372925 -5.8191234633874815 10.86430078179121" Properties=species:S:1:pos:R:3 unique_starting_index=18 config_type=initial n_minim_iter=7 stress="-5.167287807240237e-05 3.570731788969486e-05 -9.302106756976242e-06 3.570731788969486e-05 -7.544358998356075e-05 1.6194854548927285e-05 -9.302106756976242e-06 1.6194854548927285e-05 0.00011441352596013673" pbc="T T T"
Si       0.22682672      10.49074294      -1.30772505
Si      -1.53200193      -1.38688814       5.65866094
Si      -3.84153668      -3.93249760       9.51779451
Si       0.17784626      -3.13722984       8.58246295
Si      -5.43153260      -0.50752802       8.85835427
Si       4.31467459       2.27028802      -0.23381872
Si       2.41147091       1.02052075       0.05687990
Si      -2.01268369       1.73888570       8.24467117
Si      -1.76724306      -3.85643780       9.08189725
Si      -2.55696185       0.90806089       5.76157731
Si       1.19025495      -0.73622188       2.85538225
Si      -2.96666271       3.43605910       4.80858726
Si      -3.23288069      -3.05788901       6.32442974
Si      -0.76479547       7.54867445      -1.18649933
Si       1.19173534       1.19900688       3.73567017
Si       0.89755590       8.60359415      -2.00718443
Si      -0.92282041      -1.71472115       3.21139440
Si       2.57048785      -5.41410138       6.20364072
Si       0.29203721       2.77105229       2.63387420
Si      -3.23660931       2.64980297       6.76515854
Si      -1.22817997       4.10929774       3.27472048
Si      -1.51086800      -2.53800972       7.44188383
22
Lattice="5.532222447788584 -0.6533166416722623 -1.3760534995821077 -2.3651872356503425 11.575431923780252 -2.3175653908083222 -4.648071064550257 -5.819015879078719 10.864127761909318" Properties=species:S:1:pos:R:3 unique_starting_index=18 config_type=initial n_minim_iter=8 stress="3.888930978895973e-05 -6.973746613348095e-05 7.149710509726588e-06 -6.973746613348095e-05 -2.3736841823514405e-05 3.083887446767341e-07 7.149710509726588e-06 3.083887446767341e-07 -5.406031441771853e-06" pbc="T T T"
Si       0.22662620      10.49063955      -1.30774995
Si      -1.53197828      -1.38687590       5.65856716
Si      -3.84150432      -3.93238757       9.51762536
Si       0.17794576      -3.13723494       8.58234255
Si      -5.43159543      -0.50745137       8.85822608
Si       4.31476114       2.27019506      -0.23385218
Si       2.41149636       1.02045251       0.05689570
Si      -2.01277055       1.73889896       8.24454678
Si      -1.76719293      -3.85639438       9.08177382
Si      -2.55704014       0.90806608       5.76145491
Si       1.19026970      -0.73627884       2.85534010
Si      -2.96679273       3.43607522       4.80847440
Si      -3.23289936      -3.05779487       6.32431544
Si      -0.76502141       7.54861022      -1.18651562
Si       1.19171505       1.19893678       3.73559428
Si       0.89741008       8.60345720      -2.00718505
Si      -0.92282538      -1.71468233       3.21135666
Si       2.57068629      -5.41417712       6.20359437
Si       0.29198451       2.77103535       2.63378370
Si      -3.23669646       2.64982478       6.76501903
Si      -1.22829638       4.10927520       3.27462986
Si      -1.51080363      -2.53804065       7.44170003
22
Lattice="5.532212543626463 -0.6532458164826783 -1.3760409009778916 -2.365041492839164 11.57542266654572 -2.3175667430721085 -4.648145695850609 -5.819104532693931 10.86403644144567" Properties=species:S:1:pos:R:3 unique_starting_index=18 config_type=initial n_minim_iter=9 stress="6.490730220827279e-06 8.053904176265605e-05 -1.53505620594207e-06 8.053904176265605e-05 1.711084361277259e-05 -1.9358270043230568e-05 -1.53505620594207e-06 -1.9358270043230568e-05 -5.354549146778705e-05" pbc="T T T"
Si       0.22677465      10.49065537      -1.30775937
Si      -1.53198404      -1.38690661       5.65850615
Si      -3.84154453      -3.93243960       9.51753389
Si       0.17790145      -3.13724779       8.58227631
Si      -5.43158258      -0.50753868       8.85816944
Si       4.31482290       2.27027000      -0.23387694
Si       2.41150282       1.02047884       0.05690791
Si      -2.01276127       1.73887604       8.24448350
Si      -1.76724681      -3.85643700       9.08171557
Si      -2.55705151       0.90802198       5.76138787
Si       1.19023572      -0.73629214       2.85531418
Si      -2.96674886       3.43604314       4.80842371
Si      -3.23295628      -3.05784159       6.32425948
Si      -0.76495410       7.54861244      -1.18652231
Si       1.19170906       1.19893581       3.73555081
Si       0.89751689       8.60346278      -2.00717832
Si      -0.92286766      -1.71469056       3.21133961
Si       2.57062177      -5.41419598       6.20355960
Si       0.29202141       2.77105103       2.63373591
Si      -3.23664314       2.64978215       6.76494543
Si      -1.22825307       4.10926595       3.27458205
Si      -1.51081173      -2.53812081       7.44159046
22
Lattice="5.532186166800672 -0.6534013991462793 -1.3760535947241057 -2.365336751129582 11.57531110096781 -2.3174585300533277 -4.647934417248163 -5.8187759039045845 10.86408290868997" Properties=species:S:1:pos:R:3 unique_starting_index=18 config_type=initial n_minim_iter=10 stress="-0.00014197074830433963 -4.279400276244226e-05 5.14650454796451e-05 -4.279400276244226e-05 9.556990154747963e-05 5.5327868030765357e-05 5.14650454796451e-05 5.5327868030765357e-05 5.011695482066734e-05" pbc="T T T"
Si       0.22656660      10.49047416      -1.30764754
Si      -1.53186793      -1.38674957       5.65848144
Si      -3.84135451      -3.93209294       9.51755512
Si       0.17797154      -3.13707320       8.58238098
Si      -5.43144584      -0.50729749       8.85836260
Si       4.31488057       2.27020129      -0.23391859
Si       2.41143242       1.02037925       0.05700245
Si      -2.01278114       1.73905816       8.24466555
Si      -1.76710409      -3.85621418       9.08184432
Si      -2.55714409       0.90814696       5.76141415
Si       1.19015644      -0.73637170       2.85534165
Si      -2.96681970       3.43615703       4.80853911
Si      -3.23290614      -3.05761072       6.32429607
Si      -0.76524696       7.54853301      -1.18646469
Si       1.19161596       1.19893032       3.73558696
Si       0.89721377       8.60323646      -2.00705630
Si      -0.92288966      -1.71455364       3.21139954
Si       2.57077855      -5.41423205       6.20361671
Si       0.29198963       2.77107724       2.63375051
Si      -3.23658922       2.64995824       6.76503097
Si      -1.22838156       4.10932195       3.27463719
Si      -1.51058815      -2.53813323       7.44147998
22
Lattice="5.532388479196781 -0.6533999585675895 -1.3761042913829358 -2.3654612643562865 11.574868370992046 -2.3174988427992615 -4.648184354990935 -5.818592635762727 10.864080779500478" Properties=species:S:1:pos:R:3 unique_starting_index=18 config_type=initial n_minim_iter=11 stress="8.072748764005556e-06 -1.0963567472703978e-05 -1.8078134380863152e-05 -1.0963567472703978e-05 -5.039481089283307e-05 -8.996516303298765e-07 -1.8078134380863152e-05 -8.996516303298765e-07 1.1769780625923282e-06" pbc="T T T"
Si       0.22656544      10.49003120      -1.30772242
Si      -1.53194628      -1.38670592       5.65840936
Si      -3.84157123      -3.93193675       9.51752635
Si       0.17787960      -3.13699461       8.58234138
Si      -5.43169737      -0.50732446       8.85840928
Si       4.31509543       2.27012704      -0.23402814
Si       2.41148863       1.02030811       0.05700879
Si      -2.01295844       1.73895924       8.24463156
Si      -1.76723655      -3.85610691       9.08182982
Si      -2.55736552       0.90808174       5.76135601
Si       1.19010901      -0.73642035       2.85530712
Si      -2.96700630       3.43600887       4.80851278
Si      -3.23310786      -3.05750384       6.32431001
Si      -0.76536151       7.54824418      -1.18651459
Si       1.19156440       1.19884123       3.73550724
Si       0.89716783       8.60286088      -2.00709296
Si      -0.92299784      -1.71447379       3.21141765
Si       2.57083590      -5.41412783       6.20359461
Si       0.29197412       2.77096003       2.63367907
Si      -3.23674802       2.64983630       6.76497917
Si      -1.22850630       4.10915146       3.27456784
Si      -1.51063973      -2.53818518       7.44135658
22
Lattice="5.532446388224865 -0.6534640184658577 -1.3759245633640507 -2.3657199803927758 11.574789428749128 -2.317560273524935 -4.647921948955151 -5.818545587271726 10.863618993496903" Properties=species:S:1:pos:R:3 unique_starting_index=18 config_type=initial n_minim_iter=12 stress="-1.5156964123236062e-05 -6.688858575009913e-06 8.287468724142279e-06 -6.688858575009913e-06 -3.538605867752764e-06 -5.774375172730447e-06 8.287468724142279e-06 -5.774375172730447e-06 -1.8761090402983773e-05" pbc="T T T"
Si       0.22645664      10.48991221      -1.30773238
Si      -1.53173732      -1.38664037       5.65803934
Si      -3.84138405      -3.93180920       9.51710128
Si       0.17816205      -3.13700995       8.58208407
Si      -5.43154342      -0.50737701       8.85809453
Si       4.31528825       2.27014636      -0.23400303
Si       2.41148256       1.02026262       0.05711854
Si      -2.01281584       1.73895466       8.24433261
Si      -1.76700870      -3.85610785       9.08146561
Si      -2.55742564       0.90803526       5.76099145
Si       1.19007647      -0.73656638       2.85523584
Si      -2.96700398       3.43601838       4.80821963
Si      -3.23301294      -3.05749707       6.32412204
Si      -0.76563085       7.54821241      -1.18657409
Si       1.19158339       1.19877636       3.73535566
Si       0.89691760       8.60265356      -2.00707128
Si      -0.92302948      -1.71440539       3.21134374
Si       2.57114292      -5.41418885       6.20351975
Si       0.29205482       2.77098621       2.63358550
Si      -3.23660713       2.64985885       6.76473594
Si      -1.22850122       4.10908767       3.27431641
Si      -1.51030372      -2.53845454       7.44086344
22
Lattice="5.532578159229161 -0.6534824169504806 -1.3758862997349617 -2.3658592648152594 11.57459519203816 -2.3175823596288465 -4.647962879372383 -5.818450082012161 10.86347424602785" Properties=species:S:1:pos:R:3 unique_starting_index=18 config_type=initial n_minim_iter=13 stress="6.984503604575416e-06 4.781093876700397e-06 -1.3608288688630045e-05 4.781093876700397e-06 -2.4388922131258648e-05 -3.080206179361994e-06 -1.3608288688630045e-05 -3.080206179361994e-06 7.650193650344044e-06" pbc="T T T"
Si       0.22643667      10.48971886      -1.30773307
Si      -1.53168107      -1.38658775       5.65788589
Si      -3.84143610      -3.93167898       9.51696280
Si       0.17826505      -3.13696555       8.58198332
Si      -5.43164907      -0.50743859       8.85805176
Si       4.31547249       2.27015166      -0.23404188
Si       2.41151890       1.02024740       0.05715195
Si      -2.01282839       1.73893127       8.24425357
Si      -1.76698599      -3.85606373       9.08140449
Si      -2.55758979       0.90799792       5.76083709
Si       1.19002395      -0.73664852       2.85520807
Si      -2.96710488       3.43597354       4.80810822
Si      -3.23309389      -3.05748953       6.32412335
Si      -0.76581043       7.54810038      -1.18660082
Si       1.19159118       1.19874366       3.73528578
Si       0.89684456       8.60242818      -2.00705795
Si      -0.92314644      -1.71434707       3.21131103
Si       2.57126966      -5.41414511       6.20345535
Si       0.29210807       2.77098967       2.63357836
Si      -3.23663915       2.64983399       6.76468653
Si      -1.22852794       4.10898783       3.27419233
Si      -1.51015301      -2.53857524       7.44055131
22
Lattice="5.532700317431312 -0.6535188614148116 -1.3757514439384848 -2.366049459509697 11.574752075255962 -2.3176777647482756 -4.647878351094232 -5.818603664359511 10.863080658465762" Properties=species:S:1:pos:R:3 unique_starting_index=18 config_type=initial n_minim_iter=14 stress="1.4022592278522482e-05 1.0260092115666398e-05 -3.697195653925489e-06 1.0260092115666398e-05 9.683151819149036e-06 -1.1845972452613244e-05 -3.697195653925489e-06 -1.1845972452613244e-05 -1.10526091832833e-05" pbc="T T T"
Si       0.22637447      10.48983561      -1.30778187
Si      -1.53154942      -1.38661891       5.65760145
Si      -3.84130186      -3.93174664       9.51658871
Si       0.17846877      -3.13706432       8.58168847
Si      -5.43165215      -0.50757387       8.85776062
Si       4.31563218       2.27021280      -0.23403890
Si       2.41154683       1.02025721       0.05723412
Si      -2.01274396       1.73888274       8.24396342
Si      -1.76686318      -3.85611862       9.08108459
Si      -2.55770717       0.90794933       5.76052843
Si       1.18998991      -0.73676555       2.85514567
Si      -2.96717916       3.43597563       4.80783534
Si      -3.23313086      -3.05764834       6.32399308
Si      -0.76605617       7.54821173      -1.18666623
Si       1.19165070       1.19871368       3.73514851
Si       0.89676017       8.60246731      -2.00704152
Si      -0.92326287      -1.71436916       3.21118661
Si       2.57146387      -5.41429738       6.20329512
Si       0.29220096       2.77107012       2.63350200
Si      -3.23662095       2.64981128       6.76436435
Si      -1.22852311       4.10897247       3.27393465
Si      -1.50989209      -2.53892353       7.44009280
22
Lattice="5.5328190469394505 -0.653551804858405 -1.3757287458529877 -2.3661976547292523 11.574722182542429 -2.3177399456349463 -4.6479225296901205 -5.818614531222702 10.862990665733381" Properties=species:S:1:pos:R:3 unique_starting_index=18 config_type=initial n_minim_iter=15 stress="3.227689956847016e-05 1.5674095047337374e-05 -5.870763107422484e-06 1.5674095047337374e-05 -7.369896674087204e-06 -4.54601379743042e-06 -5.870763107422484e-06 -4.54601379743042e-06 8.704895244327802e-06" pbc="T T T"
Si       0.22631987      10.48976256      -1.30781976
Si      -1.53149617      -1.38662725       5.65752175
Si      -3.84123709      -3.93172759       9.51648471
Si       0.17856097      -3.13707515       8.58156382
Si      -5.43175151      -0.50763447       8.85774201
Si       4.31574582       2.27021044      -0.23404565
Si       2.41157646       1.02028115       0.05725599
Si      -2.01278814       1.73885724       8.24389221
Si      -1.76686650      -3.85607780       9.08100400
Si      -2.55783970       0.90789269       5.76043174
Si       1.18992037      -0.73679808       2.85515692
Si      -2.96729590       3.43595928       4.80772628
Si      -3.23322457      -3.05771761       6.32405821
Si      -0.76626773       7.54820878      -1.18671293
Si       1.19161539       1.19868049       3.73507552
Si       0.89662698       8.60236451      -2.00709028
Si      -0.92334194      -1.71432703       3.21121214
Si       2.57157804      -5.41431316       6.20324645
Si       0.29227173       2.77108555       2.63348853
Si      -3.23669167       2.64974730       6.76425481
Si      -1.22857770       4.10892973       3.27381171
Si      -1.50976318      -2.53918773       7.43977520
22
Lattice="5.532867292439824 -0.6536500630840627 -1.3756946099407286 -2.3664377765150495 11.575197882353983 -2.317964043544694 -4.64790019569378 -5.819011844404876 10.862746802108633" Properties=species:S:1:pos:R:3 unique_starting_index=18 config_type=initial n_minim_iter=16 stress="2.9460033226886167e-05 1.0951977786293153e-05 -1.5713857348667145e-05 1.0951977786293153e-05 1.3694221999985001e-05 -8.199193355108465e-06 -1.5713857348667145e-05 -8.199193355108465e-06 -2.2654069765138806e-07" pbc="T T T"
Si       0.22615778      10.49005209      -1.30802458
Si      -1.53138054      -1.38675686       5.65728294
Si      -3.84110943      -3.93197192       9.51623134
Si       0.17868219      -3.13738658       8.58120607
Si      -5.43185211      -0.50787491       8.85758945
Si       4.31579002       2.27025653      -0.23407883
Si       2.41156692       1.02041284       0.05719686
Si      -2.01295578       1.73882076       8.24358764
Si      -1.76672063      -3.85627354       9.08077401
Si      -2.55804382       0.90772106       5.76014945
Si       1.18972174      -0.73690851       2.85514226
Si      -2.96747608       3.43601003       4.80740584
Si      -3.23343937      -3.05805610       6.32407110
Si      -0.76666928       7.54855543      -1.18688667
Si       1.19150458       1.19859399       3.73487648
Si       0.89631398       8.60254337      -2.00727302
Si      -0.92346081      -1.71435443       3.21125094
Si       2.57170996      -5.41467022       6.20314372
Si       0.29233240       2.77120903       2.63331941
Si      -3.23678884       2.64964138       6.76391656
Si      -1.22869691       4.10899210       3.27347608
Si      -1.50936736      -2.53991730       7.43915425
22
Lattice="5.532790524603562 -0.6537571433063201 -1.3755582658028238 -2.366677082968004 11.575908422308494 -2.3182647798895113 -4.64757106244167 -5.819531768457695 10.862528078013005" Properties=species:S:1:pos:R:3 unique_starting_index=18 config_type=initial n_minim_iter=17 stress="1.5967895294647546e-05 1.1843951246279071e-05 8.248827896510922e-06 1.1843951246279071e-05 3.6286356771882305e-05 -1.1969752545875535e-05 8.248827896510922e-06 -1.1969752545875535e-05 6.124163751402723e-06" pbc="T T T"
Si       0.22598362      10.49049776      -1.30824450
Si      -1.53109911      -1.38690174       5.65705809
Si      -3.84072962      -3.93226957       9.51601893
Si       0.17910257      -3.13782203       8.58098867
Si      -5.43163633      -0.50808540       8.85744939
Si       4.31579339       2.27035765      -0.23396480
Si       2.41153369       1.02062943       0.05715110
Si      -2.01295281       1.73885235       8.24334987
Si      -1.76626853      -3.85651216       9.08059732
Si      -2.55812385       0.90752876       5.75985836
Si       1.18951509      -0.73704296       2.85519629
Si      -2.96754042       3.43609146       4.80709207
Si      -3.23350879      -3.05844129       6.32412033
Si      -0.76712864       7.54907621      -1.18709396
Si       1.19147691       1.19861651       3.73474777
Si       0.89592966       8.60292394      -2.00737957
Si      -0.92355645      -1.71441273       3.21129271
Si       2.57195234      -5.41514515       6.20320276
Si       0.29247748       2.77139228       2.63319753
Si      -3.23669274       2.64959045       6.76355381
Si      -1.22871845       4.10913777       3.27313241
Si      -1.50882792      -2.54087202       7.43841291
22
Lattice="5.532711453789945 -0.6539045061179088 -1.3755068986623502 -2.3669188946021755 11.576447462195052 -2.3183023171435253 -4.647285448019276 -5.8196965005532375 10.862458561897057" Properties=species:S:1:pos:R:3 unique_starting_index=18 config_type=initial n_minim_iter=18 stress="9.908149156558717e-06 1.661108359951609e-05 9.965785403977373e-06 1.661108359951609e-05 4.2518722216591485e-05 4.3232272025984175e-06 9.965785403977373e-06 4.3232272025984175e-06 1.887042568057567e-05" pbc="T T T"
Si       0.22577749      10.49080928      -1.30822858
Si      -1.53086935      -1.38688689       5.65695751
Si      -3.84032950      -3.93228472       9.51595368
Si       0.17951109      -3.13801541       8.58096575
Si      -5.43152046      -0.50806716       8.85753711
Si       4.31581259       2.27041705      -0.23378774
Si       2.41150275       1.02082972       0.05710889
Si      -2.01298379       1.73906873       8.24336104
Si      -1.76594430      -3.85649883       9.08049024
Si      -2.55826318       0.90749624       5.75974847
Si       1.18930090      -0.73707949       2.85529476
Si      -2.96756157       3.43633777       4.80700776
Si      -3.23365661      -3.05858711       6.32420941
Si      -0.76758723       7.54948454      -1.18712001
Si       1.19136539       1.19867237       3.73472303
Si       0.89555350       8.60322336      -2.00724813
Si      -0.92369122      -1.71439364       3.21132721
Si       2.57220573      -5.41540332       6.20332774
Si       0.29260688       2.77157065       2.63324503
Si      -3.23664045       2.64970704       6.76345294
Si      -1.22875424       4.10932798       3.27299406
Si      -1.50826852      -2.54153876       7.43779804
22
Lattice="5.532679762857963 -0.6541480031812071 -1.3754599610926956 -2.3673995904956042 11.576695801844286 -2.318279482389619 -4.646891088313808 -5.819526918677775 10.862455947050044" Properties=species:S:1:pos:R:3 unique_starting_index=18 config_type=initial n_minim_iter=19 stress="-9.903998279624992e-07 8.310871169047517e-07 2.1139698075925196e-05 8.310871169047517e-07 2.257703652537419e-05 9.879675525709316e-06 2.1139698075925196e-05 9.879675525709316e-06 1.6333062411322178e-05" pbc="T T T"
Si       0.22530778      10.49091298      -1.30813040
Si      -1.53065475      -1.38673489       5.65686141
Si      -3.83984755      -3.93209498       9.51595108
Si       0.17996333      -3.13804340       8.58111616
Si      -5.43145662      -0.50785706       8.85768422
Si       4.31579623       2.27031600      -0.23363305
Si       2.41149075       1.02093815       0.05707492
Si      -2.01304526       1.73932285       8.24345902
Si      -1.76541652      -3.85624598       9.08048565
Si      -2.55848151       0.90760597       5.75973561
Si       1.18914159      -0.73704928       2.85542686
Si      -2.96760081       3.43660803       4.80702825
Si      -3.23367998      -3.05844844       6.32434968
Si      -0.76819761       7.54966138      -1.18708000
Si       1.19125415       1.19862007       3.73474465
Si       0.89505539       8.60323468      -2.00714462
Si      -0.92374876      -1.71429802       3.21139117
Si       2.57258236      -5.41555409       6.20347641
Si       0.29265298       2.77169202       2.63338095
Si      -3.23664002       2.64983439       6.76343780
Si      -1.22881923       4.10942788       3.27292488
Si      -1.50770345      -2.54207803       7.43724222
22
Lattice="5.532834095078189 -0.6542936495103558 -1.3755134314249424 -2.3677384779952453 11.576839095540478 -2.3183094074811743 -4.6469404984067495 -5.819479786058911 10.862562312953822" Properties=species:S:1:pos:R:3 unique_starting_index=18 config_type=initial n_minim_iter=20 stress="1.2455749910485164e-05 3.2204588281921156e-06 5.1791584540199855e-06 3.2204588281921156e-06 8.639338808458121e-06 -8.508647335644127e-07 5.1791584540199855e-06 -8.508647335644127e-07 7.824063490725007e-06" pbc="T T T"
Si       0.22497302      10.49097589      -1.30813688
Si      -1.53065819      -1.38661567       5.65673306
Si      -3.83965053      -3.93204228       9.51601105
Si       0.18020099      -3.13807378       8.58127637
Si      -5.43174366      -0.50775819       8.85791554
Si       4.31597013       2.27025316      -0.23357859
Si       2.41158952       1.02106866       0.05697801
Si      -2.01334114       1.73945316       8.24354213
Si      -1.76523487      -3.85614146       9.08055740
Si      -2.55888065       0.90758833       5.75976960
Si       1.18894492      -0.73705223       2.85550846
Si      -2.96781870       3.43668207       4.80711365
Si      -3.23402342      -3.05834904       6.32455240
Si      -0.76874944       7.54974777      -1.18706438
Si       1.19113130       1.19868329       3.73469442
Si       0.89476842       8.60324445      -2.00720578
Si      -0.92390956      -1.71423869       3.21149296
Si       2.57288682      -5.41566067       6.20365403
Si       0.29265420       2.77178971       2.63350236
Si      -3.23686461       2.64984150       6.76346909
Si      -1.22887527       4.10941742       3.27281537
Si      -1.50725434      -2.54280571       7.43665526
22
Lattice="5.53294196862958 -0.654485381266377 -1.3754521755683482 -2.368211564291456 11.576681698823096 -2.3182349583884614 -4.646706625569699 -5.819124833599629 10.862403797113672" Properties=species:S:1:pos:R:3 unique_starting_index=18 config_type=initial n_minim_iter=21 stress="3.626880565857502e-06 6.272406208193429e-06 3.194798490410108e-06 6.272406208193429e-06 -1.4699599853871183e-05 -3.524632088472633e-06 3.194798490410108e-06 -3.524632088472633e-06 -1.545613163576916e-05" pbc="T T T"
Si       0.22444028      10.49071160      -1.30805145
Si      -1.53059656      -1.38640184       5.65651365
Si      -3.83913150      -3.93170767       9.51585381
Si       0.18075773      -3.13790271       8.58133135
Si      -5.43189973      -0.50744819       8.85798197
Si       4.31616291       2.27008360      -0.23337656
Si       2.41170641       1.02112087       0.05704316
Si      -2.01353796       1.73963303       8.24354368
Si      -1.76469961      -3.85572931       9.08044074
Si      -2.55922623       0.90751585       5.75972292
Si       1.18874046      -0.73703779       2.85556062
Si      -2.96789130       3.43676678       4.80717686
Si      -3.23427969      -3.05799602       6.32470546
Si      -0.76943954       7.54966280      -1.18696846
Si       1.19102674       1.19869020       3.73472019
Si       0.89423516       8.60311807      -2.00711209
Si      -0.92404766      -1.71410964       3.21152017
Si       2.57339748      -5.41555205       6.20374070
Si       0.29261187       2.77200535       2.63357783
Si      -3.23707978       2.64994263       6.76348238
Si      -1.22883913       4.10934707       3.27267278
Si      -1.50631153      -2.54375973       7.43552838
