24
Lattice="8.135915459896138 1.0896234395495252 -1.4467861202593668 -3.1243161507391988 6.953993643773238 0.3887329279388543 -1.5046168278233325 -0.4018786434110274 9.916191584630539" Properties=species:S:1:pos:R:3 unique_starting_index=90 config_type=initial n_minim_iter=1 energy=-3892.6553519699737 free_energy=-3892.6553519699737 pbc="T T T"
Si       5.16665115       0.93077056       6.20005283
Si       0.79102654       3.07908158       0.37397927
Si       4.99579553       5.97980185       0.89536420
Si       0.93580071       0.53657098       2.25413101
Si       3.32270499       2.98062727       8.38497934
Si      -2.95125632       4.77170086       8.17413362
Si       0.13734685       2.21822637       3.67644430
Si       1.64799314       4.73990370       7.42958867
Si      -2.59512269       6.80635031       7.70845697
Si       4.68213911       2.67860512       5.02646521
Si       1.10942482       4.87307683       1.53241399
Si       3.09680017       7.45155823       1.39871510
Si       4.15992000       7.74953947      -0.65235145
Si       5.53971301       2.85965394       7.39644439
Si      -1.07085282       4.57580935       1.03371955
Si      -3.47240081       6.52374674       9.73883914
Si      -0.98639611       1.95740886       1.51593493
Si       3.67944603       5.04273656       8.02030624
Si       1.97998960       1.15438205       8.05724046
Si      -1.19259118       3.00103086       5.50999817
Si       0.35041222       5.58589206       5.56934102
Si       4.11687124       1.34313085       0.51187268
Si       4.96206581       3.89604117       3.31462442
Si       1.43997438       5.94722224       3.50546417
24
Lattice="8.043665548116175 0.9298207371995234 -1.5650358239003743 -3.1763201522327584 6.551303322399648 0.39366500999945153 -1.5744427941209573 -0.4069900439297679 10.189830505550459" Properties=species:S:1:pos:R:3 unique_starting_index=90 config_type=initial n_minim_iter=2 stress="-0.007846338887533591 -0.005962188121870026 -0.0024388396855198648 -0.005962188121870026 -0.027959939591692202 -0.006822192735164531 -0.0024388396855198648 -0.006822192735164531 0.004788872052723552" pbc="T T T"
Si       5.02213028       0.69566646       6.27606012
Si       0.77115363       2.78548790       0.34696309
Si       4.87813785       5.50607650       0.86909913
Si       0.90937237       0.47297944       2.28649990
Si       3.16411200       2.64545667       8.56639047
Si      -3.01245026       4.41345687       8.38275147
Si       0.07740335       2.06684629       3.76080735
Si       1.47098768       4.41135152       7.60649745
Si      -2.74933765       6.42410851       7.81018415
Si       4.58090563       2.42681305       5.08935246
Si       1.09687195       4.57531618       1.55328550
Si       2.95488272       6.92697527       1.41997589
Si       3.99041985       7.22631232      -0.77403599
Si       5.31827846       2.60493760       7.52639975
Si      -1.16479748       4.33971418       1.03207138
Si      -3.57565060       6.13437328       9.99182810
Si      -1.04896338       1.82312807       1.58828648
Si       3.50605647       4.67640362       8.19932473
Si       1.96692212       1.04813262       8.26847373
Si      -1.26155306       2.80385423       5.67902661
Si       0.21734481       5.18113239       5.67960038
Si       3.99864788       1.22934728       0.47558905
Si       4.79421258       3.58573851       3.28496173
Si       1.33415266       5.57950900       3.58415435
24
Lattice="8.071300096771864 0.9345961280593782 -1.5751464676356268 -3.1794676900682544 6.5688704758173175 0.4286355207232669 -1.5895626830771765 -0.3667462139733325 10.234477116450538" Properties=species:S:1:pos:R:3 unique_starting_index=90 config_type=initial n_minim_iter=3 stress="0.005037187529371402 -0.0015730009063850824 -0.0014697415289513713 -0.0015730009063850824 0.013248397143896586 -0.011067294774854753 -0.0014697415289513713 -0.011067294774854753 0.016977846812817495" pbc="T T T"
Si       5.02661331       0.69791399       6.29053464
Si       0.78769058       2.76255530       0.35434219
Si       4.90540482       5.51979482       0.90369772
Si       0.91487998       0.48226546       2.29190490
Si       3.16969356       2.67057421       8.61882669
Si      -3.01182512       4.43741824       8.44119901
Si       0.07702083       2.09191341       3.78740240
Si       1.46160778       4.46842236       7.66730909
Si      -2.76885715       6.49409503       7.84452502
Si       4.60416628       2.46326948       5.10903894
Si       1.13094607       4.60928518       1.58636969
Si       2.96862242       6.95269124       1.47384812
Si       3.99826910       7.25151476      -0.75781418
Si       5.31037555       2.66101347       7.56711978
Si      -1.17935067       4.37216527       1.05306982
Si      -3.57938887       6.20277884      10.06783887
Si      -1.06554634       1.82914087       1.61813863
Si       3.51606270       4.74467967       8.26204983
Si       1.99760074       1.09328323       8.31656566
Si      -1.26662141       2.83686598       5.72833378
Si       0.21436941       5.21254385       5.72663759
Si       3.99340665       1.24750868       0.47756759
Si       4.79798823       3.61731944       3.29779544
Si       1.34626193       5.62772702       3.63637751
24
Lattice="8.051064885420537 0.9199562894422335 -1.5313664571058159 -3.153023941075551 6.487480184903749 0.5309483303472231 -1.5798483918988078 -0.2090210833488927 10.082716606863997" Properties=species:S:1:pos:R:3 unique_starting_index=90 config_type=initial n_minim_iter=4 stress="-0.004668207421836111 -0.0038803702826325664 0.0013547581108084917 -0.0038803702826325664 -0.00990523217922616 0.0020915209302571395 0.0013547581108084917 0.0020915209302571395 -0.005917559854929779" pbc="T T T"
Si       5.01313278       0.76589815       6.20534894
Si       0.80515844       2.70129499       0.38939083
Si       4.91414698       5.46817953       0.99786413
Si       0.91934964       0.51130458       2.26143274
Si       3.18073366       2.76544870       8.55097582
Si      -2.97275418       4.48865495       8.39120602
Si       0.08516008       2.12789584       3.76954931
Si       1.46496949       4.54727235       7.64448712
Si      -2.74882890       6.54540272       7.81238326
Si       4.61323261       2.53031208       5.06607876
Si       1.16918306       4.59500538       1.64876121
Si       2.97797775       6.89484395       1.59048896
Si       3.99247634       7.16370017      -0.63156371
Si       5.28716767       2.76960226       7.50790125
Si      -1.17799117       4.34918435       1.10753024
Si      -3.53555913       6.28669623      10.02825405
Si      -1.07109666       1.82468415       1.63980686
Si       3.52388129       4.83688054       8.23446152
Si       2.02549485       1.20941109       8.22523025
Si      -1.25089602       2.88991245       5.70394575
Si       0.22721103       5.22896447       5.73128973
Si       3.96710132       1.25800170       0.49250439
Si       4.78477916       3.63591292       3.30673424
Si       1.36537917       5.63430631       3.69390410
24
Lattice="8.139814941510913 1.0289404095416268 -1.6032002954536926 -3.057001412687719 6.339004592106969 0.646225369742283 -1.6896061238740447 -0.11018001043015896 10.154856670609576" Properties=species:S:1:pos:R:3 unique_starting_index=90 config_type=initial n_minim_iter=5 stress="0.003884470116188259 0.0008091261369864396 -0.0002267082766843359 0.0008091261369864396 -0.014425757465940615 0.0066192548297636855 -0.0002267082766843359 0.0066192548297636855 0.0009984703197371168" pbc="T T T"
Si       4.99646215       0.84584606       6.19469740
Si       0.88520097       2.61174845       0.40946426
Si       5.05270000       5.46106838       1.05493562
Si       0.92149213       0.54223194       2.25571236
Si       3.21828905       2.90003208       8.63265138
Si      -2.95807810       4.46042666       8.51433354
Si       0.09207840       2.14786321       3.81973028
Si       1.48867299       4.62410818       7.75916213
Si      -2.73067316       6.50583988       7.92738374
Si       4.66515238       2.64688932       5.06633447
Si       1.30293102       4.59364331       1.71203305
Si       3.10777530       6.85375251       1.69554426
Si       4.13261094       7.11462372      -0.59849592
Si       5.26731352       2.92882905       7.52579591
Si      -1.13554526       4.30841976       1.17986439
Si      -3.50952722       6.28518771      10.20494499
Si      -1.09068608       1.79093467       1.71581197
Si       3.54548994       4.94469397       8.31469542
Si       1.99771727       1.27486571       8.26675514
Si      -1.25799628       2.90041746       5.80377149
Si       0.26171304       5.20246809       5.82342680
Si       3.97565484       1.32773989       0.46880897
Si       4.84005120       3.71634905       3.28555269
Si       1.45958125       5.64661458       3.80463785
24
Lattice="8.050552036477805 1.0512137632418166 -1.6113901620399371 -3.005293682390342 6.331334566436643 0.6336054376942573 -1.6966756856845535 -0.13703783840543632 10.064362801464108" Properties=species:S:1:pos:R:3 unique_starting_index=90 config_type=initial n_minim_iter=6 stress="-0.01878329360473749 -0.0006917712604692706 -0.0043520623258434775 -0.0006917712604692706 -0.015544289448392085 0.004091860112982406 -0.0043520623258434775 0.004091860112982406 -0.0057933532392354815" pbc="T T T"
Si       4.91947968       0.80684685       6.11812001
Si       0.89211437       2.58223560       0.39579780
Si       5.00912419       5.45991716       1.03368912
Si       0.90977006       0.53592353       2.22252618
Si       3.18359789       2.88962710       8.54989983
Si      -2.91689625       4.43021606       8.42459237
Si       0.08694061       2.14204083       3.77988937
Si       1.46585417       4.62450545       7.68521079
Si      -2.70782973       6.48951666       7.82738357
Si       4.61198749       2.65295604       4.99316365
Si       1.32010412       4.60597307       1.68263582
Si       3.08140597       6.85445315       1.67162897
Si       4.09161054       7.12543374      -0.62731834
Si       5.17564450       2.93154691       7.42589902
Si      -1.12093338       4.31939745       1.16331406
Si      -3.46640369       6.27300139      10.10641989
Si      -1.09155626       1.78228888       1.71371431
Si       3.48039428       4.94855518       8.21605533
Si       1.96141440       1.23466763       8.17863516
Si      -1.25021739       2.88829558       5.75377840
Si       0.25102904       5.18013884       5.75240618
Si       3.91165813       1.34164129       0.44792532
Si       4.77804187       3.72702860       3.21025379
Si       1.45359352       5.65583763       3.76724635
24
Lattice="8.15200135920227 1.0441157348746217 -1.51199588251382 -3.051305575123114 6.279227910592671 0.5621063202909595 -1.6311311967515807 -0.18295529047048054 9.820656276800811" Properties=species:S:1:pos:R:3 unique_starting_index=90 config_type=initial n_minim_iter=7 stress="-0.0008683467425350501 0.001793835536757982 0.0017038622951198912 0.001793835536757982 -0.01245629428117735 0.002952634994405424 0.0017038622951198912 0.002952634994405424 -0.01402700111197391" pbc="T T T"
Si       5.03736312       0.69481589       6.00777506
Si       0.92699895       2.50024076       0.38243237
Si       5.09255393       5.38454019       1.05466580
Si       0.95024641       0.51129152       2.16064566
Si       3.33707967       2.82016598       8.39256796
Si      -2.85162424       4.35161162       8.16655191
Si       0.12047903       2.11111187       3.68722645
Si       1.53721845       4.57395476       7.52050676
Si      -2.69914431       6.41127558       7.56141780
Si       4.73558768       2.61559455       4.89284137
Si       1.39731449       4.58270608       1.62986145
Si       3.12541033       6.78218339       1.65403651
Si       4.11172379       7.06625628      -0.62811322
Si       5.28007710       2.88254910       7.26256709
Si      -1.14227858       4.31046502       1.11094490
Si      -3.41282042       6.21488949       9.82029518
Si      -1.12228473       1.75729957       1.68441075
Si       3.57998107       4.90007053       8.03470021
Si       2.07365972       1.13088419       7.99558586
Si      -1.21883802       2.84563044       5.61189619
Si       0.28583180       5.08901063       5.58883209
Si       3.92975661       1.33659561       0.45636761
Si       4.86033719       3.69257919       3.10824146
Si       1.51411809       5.61752631       3.69564969
24
Lattice="8.15005954559441 0.9716330745830557 -1.4881352569980366 -3.109505507175868 6.313473710693796 0.5983984904490349 -1.6017950198429556 -0.10935041194451466 9.855368251767732" Properties=species:S:1:pos:R:3 unique_starting_index=90 config_type=initial n_minim_iter=8 stress="-0.005475788513847618 -0.0017721807004329932 0.0005294508378147782 -0.0017721807004329932 -0.00518076080719565 0.004471327991510312 0.0005294508378147782 0.004471327991510312 -0.006483018128123334" pbc="T T T"
Si       5.05425823       0.65712807       6.04518576
Si       0.91672164       2.47244339       0.40508148
Si       5.05749216       5.34659862       1.12774829
Si       0.95694686       0.50965431       2.16908881
Si       3.35955939       2.85250039       8.46854414
Si      -2.84574993       4.42959930       8.20926093
Si       0.11499277       2.13786272       3.72051298
Si       1.51520765       4.62495482       7.59910202
Si      -2.74361850       6.48922368       7.61497758
Si       4.74005070       2.61640851       4.93914276
Si       1.38596468       4.59707394       1.66694200
Si       3.06933760       6.77372085       1.72932229
Si       4.04436997       7.03638210      -0.57884041
Si       5.27145148       2.89658785       7.31090180
Si      -1.17426293       4.34616020       1.14801728
Si      -3.43516731       6.33313938       9.89899697
Si      -1.14636401       1.77970428       1.71469044
Si       3.54636512       4.93771230       8.10998853
Si       2.09686249       1.13505128       8.03610695
Si      -1.22752311       2.89803253       5.65790332
Si       0.24945839       5.11505872       5.64327942
Si       3.90425872       1.31427133       0.47465971
Si       4.84101073       3.68552033       3.13432734
Si       1.48576168       5.64741040       3.77134438
24
Lattice="8.138536346938716 1.0068878679358386 -1.5007489425640437 -3.069622730947877 6.258269256782868 0.5901529448782774 -1.6200974020506789 -0.132742372320855 9.8190911619026" Properties=species:S:1:pos:R:3 unique_starting_index=90 config_type=initial n_minim_iter=9 stress="0.0014766350024551797 0.0012555143686715478 0.001748958769903696 0.0012555143686715478 -0.0016370084748324764 -0.0039051567800137917 0.001748958769903696 -0.0039051567800137917 0.00653609495260148" pbc="T T T"
Si       5.02777351       0.59578079       5.99291685
Si       0.94005188       2.41569600       0.39906204
Si       5.06832885       5.31911276       1.14227891
Si       0.95421087       0.48639112       2.14779722
Si       3.37123722       2.84299845       8.44864332
Si      -2.78192073       4.36739221       8.15103232
Si       0.12039260       2.12324678       3.70626513
Si       1.47698096       4.60762198       7.57679053
Si      -2.73329184       6.43796294       7.55122957
Si       4.74135490       2.62060534       4.90242590
Si       1.44276792       4.59179228       1.63522375
Si       3.07880743       6.74207384       1.72671904
Si       4.06082001       7.01151657      -0.61480333
Si       5.24193866       2.90668900       7.22335211
Si      -1.12674897       4.34090946       1.15261329
Si      -3.40310217       6.31569323       9.86888171
Si      -1.15663802       1.76511080       1.73849844
Si       3.52233075       4.92983402       8.06106209
Si       2.09596595       1.06171213       7.98304560
Si      -1.21940902       2.87614044       5.64458114
Si       0.24112058       5.04754994       5.60488046
Si       3.86138007       1.33103606       0.45533068
Si       4.83943637       3.69924536       3.04797759
Si       1.52285599       5.63643855       3.77893724
24
Lattice="8.255135335722795 0.9788083268313551 -1.6426379339947856 -3.137860258739611 6.326993551975017 0.6830642750185905 -1.8548058754869916 -0.08389240354058579 9.62197179015923" Properties=species:S:1:pos:R:3 unique_starting_index=90 config_type=initial n_minim_iter=10 stress="0.014020939615867527 0.002103375699945821 -0.0033183613132224538 0.002103375699945821 0.004778608602683691 -0.0029457904041750136 -0.0033183613132224538 -0.0029457904041750136 0.0027856720448598132" pbc="T T T"
Si       4.94987897       0.54640269       5.72817928
Si       0.94134132       2.41605596       0.38968277
Si       5.06751555       5.34345610       1.07297626
Si       0.91200536       0.46446363       2.08079824
Si       3.21299833       2.90645895       8.21668843
Si      -2.95232331       4.44795249       8.02474360
Si       0.03771771       2.16076691       3.63631289
Si       1.25822696       4.68652635       7.41446078
Si      -2.97155094       6.55185538       7.45997271
Si       4.67505405       2.65667327       4.67991211
Si       1.43075936       4.64181951       1.56562679
Si       3.03126262       6.80217400       1.67131814
Si       4.09060184       7.05695630      -0.66405783
Si       5.14042274       2.95578543       6.89221293
Si      -1.13051641       4.41307964       1.19807748
Si      -3.67832126       6.49074113       9.76571143
Si      -1.22763628       1.80385129       1.76424469
Si       3.32808523       5.00542300       7.81582856
Si       1.95310532       1.02957521       7.72987951
Si      -1.36317281       2.94333860       5.56620374
Si       0.07045595       5.08620868       5.49400395
Si       3.85224244       1.33335140       0.36103685
Si       4.81530165       3.74050603       2.85053817
Si       1.45813825       5.71230050       3.72378961
24
Lattice="8.04261611527819 0.9539357587517657 -1.5035556542586919 -3.0765944255344055 6.399073807130783 0.705123209897189 -1.6708238181982322 0.01675771124068692 9.551201763274712" Properties=species:S:1:pos:R:3 unique_starting_index=90 config_type=initial n_minim_iter=11 stress="0.0012753971385154198 -0.00016204434277128572 0.0007282774070715094 -0.00016204434277128572 -6.549629577277338e-05 0.0019716261036466717 0.0007282774070715094 0.0019716261036466717 -0.0035503470831729027" pbc="T T T"
Si       4.93316414       0.54932531       5.76817359
Si       0.92452127       2.44589192       0.43828986
Si       4.94171932       5.39791340       1.23376553
Si       0.91582650       0.44829250       2.11071645
Si       3.23951009       3.02758672       8.28697411
Si      -2.73585890       4.56051222       7.98691437
Si       0.09544684       2.21803021       3.66006407
Si       1.26326265       4.80316568       7.47550859
Si      -2.84131747       6.71512609       7.44997356
Si       4.62294861       2.71977024       4.73951013
Si       1.42233735       4.69639652       1.59814001
Si       2.94988512       6.88491868       1.78917255
Si       3.97514492       7.10796107      -0.54085586
Si       5.15184385       3.05222963       6.90514895
Si      -1.03776460       4.49114891       1.25384215
Si      -3.47159578       6.71997299       9.75346218
Si      -1.19395166       1.86131015       1.78685609
Si       3.32820639       5.12668995       7.87627806
Si       2.03681970       1.04517818       7.70546023
Si      -1.25415742       3.04033483       5.56244605
Si       0.09674964       5.15920714       5.52035249
Si       3.73680824       1.34191357       0.42926792
Si       4.74868270       3.80399938       2.92118749
Si       1.48999749       5.80478077       3.82775033
24
Lattice="7.900515006657428 0.9293147111086858 -1.4906035977294587 -3.0421736128828476 6.420303898092982 0.7226714538486724 -1.6220452359534028 0.0518179871449807 9.608517390091023" Properties=species:S:1:pos:R:3 unique_starting_index=90 config_type=initial n_minim_iter=12 stress="-0.005018007833891579 -0.0021068368310265336 -7.117777027218866e-05 -0.0021068368310265336 0.0030784133302623005 0.0022717051243669913 -7.117777027218866e-05 0.0022717051243669913 0.0033984793845580987" pbc="T T T"
Si       4.87870783       0.53343900       5.80100384
Si       0.89873751       2.48446439       0.46265487
Si       4.83522562       5.42229527       1.28058116
Si       0.89682996       0.41068044       2.16904407
Si       3.15981736       3.06332635       8.37870910
Si      -2.65654105       4.57404980       8.05190227
Si       0.11553257       2.22806244       3.70694831
Si       1.18921562       4.82128308       7.56372570
Si      -2.83392952       6.78510292       7.51603636
Si       4.52799982       2.71662708       4.77254637
Si       1.39131735       4.69412287       1.59652385
Si       2.86790765       6.90757319       1.82537648
Si       3.90040470       7.10665624      -0.53538068
Si       5.12703819       3.07124937       6.91796574
Si      -0.97302768       4.51905232       1.29969252
Si      -3.41591127       6.81849944       9.82891497
Si      -1.18246860       1.90257229       1.81885814
Si       3.25501817       5.14792159       7.94122474
Si       2.03888162       1.01943202       7.72910449
Si      -1.22649499       3.07326202       5.60936557
Si       0.04827975       5.16168806       5.56569726
Si       3.65056630       1.33562659       0.44861442
Si       4.67596364       3.80577783       2.95843364
Si       1.48699779       5.81413304       3.89721879
24
Lattice="7.84263116840746 0.95986438119114 -1.4945050698623543 -2.9778313694379595 6.297702980953038 0.7213728711276789 -1.6148931128548387 0.045746480255734676 9.619193066657134" Properties=species:S:1:pos:R:3 unique_starting_index=90 config_type=initial n_minim_iter=13 stress="-0.01584922007353858 -0.001885980375358091 -0.0007724886736640543 -0.001885980375358091 -0.01361624555025377 0.0034698398332165337 -0.0007724886736640543 0.0034698398332165337 -0.002836090761990082" pbc="T T T"
Si       4.85690398       0.51528801       5.77472759
Si       0.91075443       2.47075032       0.47179678
Si       4.82725538       5.38902665       1.28446913
Si       0.88677976       0.36541444       2.21517133
Si       3.11871481       3.02974791       8.40578528
Si      -2.58158238       4.44599408       8.07204252
Si       0.15599407       2.18758183       3.72965074
Si       1.16043533       4.74953383       7.60202655
Si      -2.83460047       6.69893204       7.50503836
Si       4.48522557       2.68469033       4.75334483
Si       1.43644973       4.61980287       1.57338090
Si       2.86912763       6.82431614       1.82982143
Si       3.91309905       7.01002745      -0.57592209
Si       5.14343943       3.06625872       6.88350003
Si      -0.90121171       4.46529636       1.32061050
Si      -3.34191710       6.74223515       9.82964170
Si      -1.17868244       1.89301541       1.84070223
Si       3.22801370       5.09491376       7.93766692
Si       2.07965314       0.98229489       7.70510805
Si      -1.19824518       3.02267665       5.62534247
Si       0.02439084       5.05330279       5.55955177
Si       3.59295005       1.34307667       0.45231249
Si       4.66421236       3.77146264       2.94605544
Si       1.54833100       5.72595144       3.92771419
24
Lattice="7.842341571398541 0.9673886589587698 -1.4810095551607108 -2.9653562174541124 6.2427225140117395 0.7097015213016269 -1.602690564127119 0.036680484744415986 9.59027682873652" Properties=species:S:1:pos:R:3 unique_starting_index=90 config_type=initial n_minim_iter=14 stress="-0.00935504079683903 -0.0008297307137091816 0.0020056495557925712 -0.0008297307137091816 -0.013967861848400685 0.0004762789362301254 0.0020056495557925712 0.0004762789362301254 0.0013789557793779572" pbc="T T T"
Si       4.88619822       0.50310825       5.73264703
Si       0.91407271       2.49490428       0.48542358
Si       4.83844254       5.38942682       1.27001344
Si       0.88485285       0.33190445       2.25801399
Si       3.10235545       2.99412855       8.39181046
Si      -2.55106254       4.37888393       8.06541948
Si       0.19732085       2.15819543       3.73274612
Si       1.15226093       4.70149397       7.60295091
Si      -2.88247445       6.66382546       7.46540572
Si       4.46761072       2.64259998       4.73478913
Si       1.46473056       4.57077035       1.55318051
Si       2.86959149       6.78746629       1.82048553
Si       3.92991903       6.95995666      -0.60607284
Si       5.20384007       3.04921667       6.85297334
Si      -0.86827395       4.44288910       1.32412810
Si      -3.31334318       6.70372388       9.77747038
Si      -1.17865015       1.89996221       1.83743738
Si       3.22802632       5.05943812       7.90423078
Si       2.15595531       0.96122338       7.65689564
Si      -1.18414157       2.98824885       5.61257205
Si      -0.00334165       4.99638125       5.53198729
Si       3.57212189       1.34433114       0.46410696
Si       4.68224801       3.74457638       2.93877636
Si       1.59882627       5.66727943       3.92868126
24
Lattice="7.883738014575608 0.9603807336596843 -1.5712812303168968 -2.9823501722514587 6.283454566737634 0.7921473194336355 -1.7583123115894592 0.09522169216073918 9.419058131786391" Properties=species:S:1:pos:R:3 unique_starting_index=90 config_type=initial n_minim_iter=15 stress="-0.009528757429132577 0.000706080184512958 -0.0032902612154474516 0.000706080184512958 -0.010116720768118271 -0.0018657241810314086 -0.0032902612154474516 -0.0018657241810314086 -0.003817244555644066" pbc="T T T"
Si       4.82888179       0.53904671       5.50089780
Si       0.90586848       2.56206593       0.50632881
Si       4.83169218       5.45886157       1.17701394
Si       0.84636546       0.34183671       2.24281443
Si       2.94555618       3.03956556       8.18842146
Si      -2.69026623       4.45463675       8.01230703
Si       0.17807390       2.17692789       3.67759557
Si       1.02049989       4.76633111       7.47780255
Si      -3.07146095       6.77246289       7.40630410
Si       4.36195773       2.64189069       4.59273565
Si       1.46275087       4.58575563       1.53396421
Si       2.83748738       6.84667764       1.78557307
Si       3.95206238       6.99385459      -0.62772554
Si       5.14471597       3.09489075       6.66879504
Si      -0.89583716       4.48553771       1.34432355
Si      -3.47021087       6.80340363       9.66715303
Si      -1.20768482       1.94128326       1.82438788
Si       3.11012901       5.13093810       7.72156728
Si       2.10925588       1.01797371       7.43564179
Si      -1.27771036       3.01800277       5.54526528
Si      -0.12423343       5.05942274       5.45142498
Si       3.55221917       1.35958297       0.42053685
Si       4.65588370       3.78075954       2.82477481
Si       1.57428359       5.69859143       3.86870027
24
Lattice="8.00967057786949 0.9025321670894872 -1.533922152694275 -3.0758207235145036 6.327500957920778 0.8396557093997976 -1.76766049981151 0.18355636445711435 9.291857464233425" Properties=species:S:1:pos:R:3 unique_starting_index=90 config_type=initial n_minim_iter=16 stress="0.007472785866054287 -0.00032637527393307626 -0.0005375730910455368 -0.00032637527393307626 -0.0028448287211512604 0.0011408664472055785 -0.0005375730910455368 0.0011408664472055785 -0.004465081150631394" pbc="T T T"
Si       4.93618043       0.54828527       5.39596446
Si       0.90550692       2.58465764       0.54605075
Si       4.88563413       5.47232205       1.18600779
Si       0.86091966       0.38194224       2.23897945
Si       2.97415562       3.07574443       8.10050418
Si      -2.76417536       4.56987125       7.98647721
Si       0.21196337       2.19606540       3.65070184
Si       1.03862550       4.84266286       7.43143855
Si      -3.20057685       6.90017122       7.34847459
Si       4.38822738       2.62761647       4.56394001
Si       1.48931332       4.59662150       1.58107580
Si       2.83711184       6.87155814       1.83451643
Si       3.96653556       6.99415145      -0.56079157
Si       5.23418074       3.11485102       6.65986892
Si      -0.97498170       4.52241577       1.35474061
Si      -3.55289096       6.91608153       9.60230039
Si      -1.22930151       1.97182543       1.80157160
Si       3.14115131       5.18004167       7.67336279
Si       2.22475114       1.08874694       7.31677053
Si      -1.30603353       3.04667238       5.50600383
Si      -0.16772549       5.13429762       5.41928785
Si       3.57991123       1.35568834       0.44525491
Si       4.71400841       3.78569906       2.81987758
Si       1.59818993       5.71825646       3.87026308
24
Lattice="7.956395773783584 0.9103715182545697 -1.4945523046847096 -3.0416701290768735 6.354657545707207 0.8888477202628905 -1.733075519068877 0.26408025893226234 9.223923821042213" Properties=species:S:1:pos:R:3 unique_starting_index=90 config_type=initial n_minim_iter=17 stress="0.0036429148988836335 0.001889639024172576 -0.0012106987000285285 0.001889639024172576 0.0009555875327025629 0.00020339017268239184 -0.0012106987000285285 0.00020339017268239184 -0.0008519596475305229" pbc="T T T"
Si       4.93499767       0.56328797       5.32400699
Si       0.91504270       2.59372892       0.59024508
Si       4.87069417       5.52465525       1.23338283
Si       0.85693212       0.41939313       2.24366742
Si       2.96967150       3.15508963       8.08832383
Si      -2.70761842       4.67738140       7.99762843
Si       0.26327252       2.22403481       3.65103686
Si       1.04068900       4.94534696       7.44001891
Si      -3.19353822       7.02104757       7.32154656
Si       4.33047452       2.66226134       4.56278292
Si       1.53028598       4.63481196       1.63387137
Si       2.82716299       6.93206074       1.90799679
Si       3.95051776       7.03598352      -0.49468121
Si       5.22881692       3.19588410       6.67919648
Si      -0.96343598       4.56850417       1.38379081
Si      -3.49176082       7.05131169       9.61522118
Si      -1.21291399       1.99893889       1.80759805
Si       3.13953797       5.27944066       7.68703624
Si       2.29489307       1.14284355       7.23932787
Si      -1.27391096       3.07328702       5.50412846
Si      -0.17091917       5.20520318       5.41953511
Si       3.51510882       1.38426712       0.47555594
Si       4.70114596       3.84343439       2.82281248
Si       1.64553052       5.76974176       3.92139311
24
Lattice="7.8697875301797415 0.832645394449083 -1.4196979613133247 -3.0875253483175404 6.439595829855103 0.8614031984318338 -1.6355315457045034 0.27747721198869535 9.157838348257483" Properties=species:S:1:pos:R:3 unique_starting_index=90 config_type=initial n_minim_iter=18 stress="0.004147840032065455 -0.0008999655112280657 0.0008764354673850995 -0.0008999655112280657 0.007254886031141311 -4.668069614547727e-05 0.0008764354673850995 -4.668069614547727e-05 0.003353897245863221" pbc="T T T"
Si       4.96518241       0.46053991       5.27803227
Si       0.89182676       2.60383436       0.62433341
Si       4.77907993       5.52888109       1.26129287
Si       0.85446633       0.42705457       2.25059817
Si       2.97365266       3.13829037       8.08066993
Si      -2.66056783       4.77472170       7.96707070
Si       0.31380158       2.21744346       3.63661173
Si       1.01142494       4.98414711       7.41295483
Si      -3.22100017       7.14506424       7.21645436
Si       4.24801279       2.61581188       4.55662196
Si       1.50389927       4.65124326       1.65625230
Si       2.73081454       6.97088892       1.93067768
Si       3.82382366       7.06267333      -0.46735482
Si       5.21951372       3.15848798       6.70804241
Si      -0.98739995       4.62656849       1.36723059
Si      -3.45617287       7.17196993       9.56163946
Si      -1.20369198       2.03251040       1.79302486
Si       3.11272858       5.27860001       7.68357185
Si       2.38323014       1.08767100       7.16838902
Si      -1.24192649       3.06186058       5.47069697
Si      -0.21060295       5.25220707       5.37555620
Si       3.42803342       1.36373420       0.51215273
Si       4.65048814       3.82037583       2.83358348
Si       1.64017434       5.77552127       3.93354983
24
Lattice="7.773511991128789 0.831702505754378 -1.386900282075376 -3.056405616856727 6.4555682144164015 0.8362463849574064 -1.5824036144543236 0.26002883628624274 9.118279912505695" Properties=species:S:1:pos:R:3 unique_starting_index=90 config_type=initial n_minim_iter=19 stress="0.00014370344336970072 -0.00011417072109484928 0.0005722377268190436 -0.00011417072109484928 0.00540925723848116 -0.001345278961265685 0.0005722377268190436 -0.001345278961265685 0.0032418580692514434" pbc="T T T"
Si       4.95766277       0.39770760       5.22188125
Si       0.89509042       2.60363854       0.65118675
Si       4.72372774       5.54493257       1.26458667
Si       0.83852412       0.43504880       2.24927646
Si       2.96071559       3.12061970       8.07430474
Si      -2.59556735       4.81004935       7.95151226
Si       0.36556304       2.19746678       3.62516010
Si       0.98033301       5.00107213       7.38260120
Si      -3.19016371       7.18654456       7.11786022
Si       4.15449305       2.60036198       4.53178872
Si       1.50868832       4.65541765       1.66483868
Si       2.69414178       6.99819684       1.92844176
Si       3.75400780       7.08588038      -0.46885599
Si       5.17989116       3.15267687       6.70935413
Si      -0.95069737       4.64631627       1.35083226
Si      -3.37273722       7.20546881       9.52505431
Si      -1.18020995       2.03838209       1.79179592
Si       3.08242595       5.27421005       7.67335712
Si       2.42114962       1.03135081       7.10267614
Si      -1.20074948       3.00745196       5.44892718
Si      -0.22068152       5.26199918       5.33114533
Si       3.34166120       1.36508903       0.52639861
Si       4.61011600       3.81591870       2.82208865
Si       1.66936643       5.75671669       3.93440655
24
Lattice="7.649285393405532 0.8239989913480578 -1.352586608219906 -3.0243291062447932 6.499368031386952 0.8091554805361658 -1.5216017352083273 0.24140307631605662 9.079651959311953" Properties=species:S:1:pos:R:3 unique_starting_index=90 config_type=initial n_minim_iter=20 stress="-0.004082065189038437 -0.0001711768978501248 -9.361337950288513e-05 -0.0001711768978501248 0.006159767715196248 -0.002569524451377438 -9.361337950288513e-05 -0.002569524451377438 0.003999975907614429" pbc="T T T"
Si       4.94691194       0.35093272       5.16937975
Si       0.89418462       2.63252262       0.68561375
Si       4.64136136       5.57820962       1.27203605
Si       0.81304241       0.43556807       2.24059823
Si       2.93657000       3.11001614       8.07575655
Si      -2.53330212       4.87729275       7.93794839
Si       0.41517817       2.18515424       3.62076579
Si       0.92100384       5.03854837       7.34306333
Si      -3.13871677       7.25558182       7.01906280
Si       4.03243625       2.59100264       4.51256835
Si       1.48243555       4.66998093       1.67545240
Si       2.64245565       7.05707873       1.91720244
Si       3.65472188       7.12861780      -0.46122651
Si       5.11884035       3.15318563       6.69997116
Si      -0.88861029       4.67510952       1.33892752
Si      -3.27555506       7.25614195       9.47479618
Si      -1.15023104       2.05371287       1.79777754
Si       3.02814844       5.27855538       7.66969792
Si       2.42709730       0.95814817       7.03233839
Si      -1.15268788       2.94924465       5.42453682
Si      -0.23663932       5.29644164       5.28346812
Si       3.25160018       1.35531632       0.53768601
Si       4.55750622       3.81117957       2.82111186
Si       1.68580159       5.73600095       3.92581535
24
Lattice="7.560007580375341 0.7891566131625612 -1.3533902483928346 -3.013085267565109 6.485154474169447 0.8365717378280505 -1.515320660672972 0.2833896090470857 9.049578090507502" Properties=species:S:1:pos:R:3 unique_starting_index=90 config_type=initial n_minim_iter=21 stress="-0.006679936660915537 0.0004568942561811102 -0.003058375817375437 0.0004568942561811102 -0.0005037221102532098 -0.0011808773041705333 -0.003058375817375437 -0.0011808773041705333 -0.00013696339208878064" pbc="T T T"
Si       4.93503279       0.33166430       5.09445396
Si       0.91571835       2.61456636       0.72013235
Si       4.56905062       5.53367792       1.31135735
Si       0.77529953       0.43207117       2.20425206
Si       2.89971890       3.11121955       8.09964691
Si      -2.51639443       4.95520422       7.95150711
Si       0.43649258       2.18443314       3.63564638
Si       0.78980292       5.10326627       7.32795482
Si      -3.10773727       7.30289042       6.95792057
Si       3.90835750       2.59402246       4.49373485
Si       1.45547588       4.66369685       1.71586107
Si       2.58500685       7.06033028       1.94399384
Si       3.54444684       7.08857674      -0.42491975
Si       5.00629452       3.17984046       6.65263017
Si      -0.82325577       4.67224026       1.36990294
Si      -3.22789666       7.29873863       9.46548896
Si      -1.15049494       2.05633899       1.85675113
Si       2.91236465       5.29535587       7.69684258
Si       2.37591233       0.88391509       6.95418402
Si      -1.13051242       2.89587398       5.43028396
Si      -0.28640479       5.30483513       5.26185381
Si       3.16925881       1.32145898       0.52801500
Si       4.50366031       3.77725554       2.80536571
Si       1.68137671       5.67705475       3.93959510
