18
Lattice="4.275307605760614 0.0 0.0 0.0 11.656425296738826 -2.4771078558068618e-16 0.0 2.1383947097456748e-16 10.059531355816562" Properties=species:S:1:pos:R:3 unique_starting_index=36 config_type=initial n_minim_iter=9 energy=-2928.0866220020444 free_energy=-2928.0866220020444 pbc="T T T"
Si       4.25892426      11.15495610       8.51788702
Si       0.01638334      11.15495610       1.54164433
Si       2.15403715      11.15495610       3.48812135
Si       2.12127046      11.15495610       6.57141001
Si       0.01730761       2.16878225       1.88603109
Si       4.25799999       2.16878225       8.17350027
Si       2.12034619       2.16878225       6.91579676
Si       2.15496142       2.16878225       3.14373459
Si       0.22515621       8.67499147       2.22659570
Si       4.05015140       8.67499147       7.83293566
Si       1.91249760       8.67499147       7.25636137
Si       2.36281001       8.67499147       2.80316998
Si       2.15494944       0.57951616       1.22658022
Si       2.12035816       0.57951616       8.83295114
Si      -0.01729564       0.57951616       6.25634590
Si       4.29260324       0.57951616       3.80318546
Si      -0.00000000       9.27857586       0.00000000
Si       2.13765380       9.27857586       5.02976568
