6
Lattice="3.7994503922632803 8.734047011708258e-56 -4.5279586811427385e-43 7.235309347996535e-56 3.7994503922632803 1.3400028922030658e-12 1.4122717239375201e-42 -4.179473197346585e-12 11.850497615721503" Properties=species:S:1:pos:R:3 unique_starting_index=46 config_type=initial n_minim_iter=1 energy=-973.9242273388427 free_energy=-973.9242273388427 pbc="T T T"
Si       3.05114783       0.74830257       9.15179195
Si       0.74830257       3.05114783       9.15179195
Si       3.05114783       3.05114783       2.69870567
Si       0.74830257       0.74830257       2.69870567
Si       1.89972520       1.89972520      10.70669719
Si       1.89972520       1.89972520       1.14380043
6
Lattice="3.819344315804288 8.756883159169894e-56 -4.545058294439378e-43 7.272803294086282e-56 3.819344315804288 1.346951507334148e-12 1.4143978644785125e-42 -4.179983011738295e-12 11.851365487299962" Properties=species:S:1:pos:R:3 unique_starting_index=46 config_type=initial n_minim_iter=2 stress="0.0038141765699237517 1.123834248214592e-17 4.2040274927065287e-17 1.123834248214592e-17 0.0038141765699238363 7.762475172808609e-16 4.2040274927065287e-17 7.762475172808609e-16 0.0015752902318324866" pbc="T T T"
Si       3.06610525       0.75323906       9.15241039
Si       0.75323906       3.06610525       9.15241039
Si       3.06610525       3.06610525       2.69895509
Si       0.75323906       0.75323906       2.69895509
Si       1.90967216       1.90967216      10.70769366
Si       1.90967216       1.90967216       1.14367183
6
Lattice="3.825130114492337 9.240765172892267e-56 -4.685322016569826e-43 7.2840159109690065e-56 3.825130114492337 1.3489884659037705e-12 1.3684573648913253e-42 -4.167127328018915e-12 11.814879875078805" Properties=species:S:1:pos:R:3 unique_starting_index=46 config_type=initial n_minim_iter=3 stress="0.0010905001814730858 1.4504694603255376e-15 7.336192917762404e-17 1.4504694603255376e-15 0.0010905001814731834 8.364634036588992e-16 7.336192917762404e-17 8.364634036588992e-16 -0.0016151493441973735" pbc="T T T"
Si       3.07326452       0.75186560       9.12394143
Si       0.75186560       3.07326452       9.12394143
Si       3.07326452       3.07326452       2.69093844
Si       0.75186560       0.75186560       2.69093844
Si       1.91256506       1.91256506      10.67745278
Si       1.91256506       1.91256506       1.13742710
6
Lattice="3.8269960660531517 8.956243467363799e-56 -4.605917481207459e-43 7.286549653024677e-56 3.8269960660531517 1.3496397596118853e-12 1.3970983929957884e-42 -4.17653862606277e-12 11.84150581716558" Properties=species:S:1:pos:R:3 unique_starting_index=46 config_type=initial n_minim_iter=4 stress="4.919850445523289e-05 1.088748939999882e-15 8.170304641666642e-17 1.088748939999882e-15 4.9198504455424934e-05 -7.738748204838703e-17 8.170304641666642e-17 -7.738748204838703e-17 0.00010062498747778432" pbc="T T T"
Si       3.07575573       0.75124033       9.14410658
Si       0.75124033       3.07575573       9.14410658
Si       3.07575573       3.07575573       2.69739924
Si       0.75124033       0.75124033       2.69739924
Si       1.91349803       1.91349803      10.70240453
Si       1.91349803       1.91349803       1.13910128
6
Lattice="3.825141814738554 8.65589368297721e-56 -4.5197317698851095e-43 7.28293156994227e-56 3.825141814738554 1.3489733825811046e-12 1.4263704874452396e-42 -4.185650895828668e-12 11.86723516431979" Properties=species:S:1:pos:R:3 unique_starting_index=46 config_type=initial n_minim_iter=5 stress="-0.001966985432650826 1.727630823806055e-15 -4.362119847078952e-17 1.727630823806055e-15 -0.001966985432650749 -2.963573050705682e-16 -4.362119847078952e-17 -2.963573050705682e-16 -0.0010994585885904672" pbc="T T T"
Si       3.07426043       0.75088138       9.16203311
Si       0.75088138       3.07426043       9.16203311
Si       3.07426043       3.07426043       2.70520206
Si       0.75088138       0.75088138       2.70520206
Si       1.91257091       1.91257091      10.73389964
Si       1.91257091       1.91257091       1.13333552
6
Lattice="3.824461182882781 8.335511031580278e-56 -4.428204624606579e-43 7.282733006525408e-56 3.824461182882781 1.3487331535865302e-12 1.4583236759363545e-42 -4.196435482643177e-12 11.897814527697129" Properties=species:S:1:pos:R:3 unique_starting_index=46 config_type=initial n_minim_iter=6 stress="-0.0007466966698738208 1.0430863870887852e-15 2.3388933608296414e-17 1.0430863870887852e-15 -0.0007466966698737699 -8.667962214445892e-17 2.3388933608296414e-17 -8.667962214445892e-17 -0.0005448414715217385" pbc="T T T"
Si       3.07325233       0.75120885       9.18448529
Si       0.75120885       3.07325233       9.18448529
Si       3.07325233       3.07325233       2.71332924
Si       0.75120885       0.75120885       2.71332924
Si       1.91223059       1.91223059      10.76590116
Si       1.91223059       1.91223059       1.13191337
6
Lattice="3.82426352540511 8.168268075727448e-56 -4.3807350946520614e-43 7.28224438032507e-56 3.82426352540511 1.3486717328852706e-12 1.4760224872488434e-42 -4.205124288123278e-12 11.922525610972675" Properties=species:S:1:pos:R:3 unique_starting_index=46 config_type=initial n_minim_iter=7 stress="-2.921441566091593e-05 1.2135823159894912e-15 4.983199799893211e-17 1.2135823159894912e-15 -2.9214415660836976e-05 -5.446852049269499e-17 4.983199799893211e-17 -5.446852049269499e-17 -4.547977263875612e-05" pbc="T T T"
Si       3.07289095       0.75137258       9.20267694
Si       0.75137258       3.07289095       9.20267694
Si       3.07289095       3.07289095       2.71984867
Si       0.75137258       0.75137258       2.71984867
Si       1.91213176       1.91213176      10.79153108
Si       1.91213176       1.91213176       1.13099453
