10
Lattice="3.308871531368189 -1.287072644752509 3.3715184299155126e-07 -2.550273911247967 12.889895545198037 -3.466868510880045e-07 -1.2751377650478595 6.444947832234704 8.171496256857948" Properties=species:S:1:pos:R:3 unique_starting_index=99 config_type=initial n_minim_iter=1 energy=-1629.6520871668276 free_energy=-1629.6520871668276 pbc="T T T"
Si       0.81368723       7.85711243       5.58163013
Si       2.08882448       1.41216463       2.58986652
Si      -0.34619434       4.40625161       3.58510214
Si      -1.62133140      10.85119939       4.58639399
Si       0.19860449      10.65405787       3.56139285
Si       1.47374134       4.20911011       4.61010364
Si       0.42113648       2.10998281       1.10133543
Si      -0.85400107       8.55493062       7.07016089
Si      -2.55083197      13.84528978       2.82075624
Si      -1.27569527       7.40034203       5.35073966
10
Lattice="3.3059285934042895 -1.3006456258406032 3.3695938737856996e-07 -2.5943942406551863 12.906569435912807 -3.5117885653661965e-07 -1.2971979327628502 6.4532847778139555 8.201897490387314" Properties=species:S:1:pos:R:3 unique_starting_index=99 config_type=initial n_minim_iter=2 stress="-0.0025530787885067303 -0.007117391917265569 -2.4000058328828387e-11 -0.007117391917265569 0.003200918714242795 -7.414077994445684e-10 -2.4000058328828387e-11 -7.414077994445684e-10 -0.001786390569734742" pbc="T T T"
Si       0.77993106       7.85792554       5.60272027
Si       2.07712848       1.40464080       2.59917762
Si      -0.36508395       4.40727917       3.59537513
Si      -1.66228117      10.86056389       4.60652223
Si       0.15583200      10.65937230       3.57244923
Si       1.45302902       4.20608759       4.62944849
Si       0.41328196       2.10916015       1.10658116
Si      -0.88391576       8.56244491       7.09531639
Si      -2.59559805      13.86496173       2.83115550
Si      -1.29840118       7.41167703       5.37074164
10
Lattice="3.2999665987656646 -1.2844671904431484 3.362507542336904e-07 -2.548431703618822 12.850893533136857 -3.462197349286677e-07 -1.2742166713273178 6.425446826947809 8.273399995829209" Properties=species:S:1:pos:R:3 unique_starting_index=99 config_type=initial n_minim_iter=3 stress="-0.010159350255775202 0.0022207229102815004 -1.936095659953807e-09 0.0022207229102815004 -0.006680914567578233 3.360391125937865e-10 -1.936095659953807e-09 3.360391125937865e-10 0.009222809508973275" pbc="T T T"
Si       0.80729381       7.82913411       5.65381758
Si       2.08150996       1.40368732       2.61958281
Si      -0.35992725       4.38218256       3.61620755
Si      -1.63414321      10.80762933       4.65719232
Si       0.19099114      10.62205477       3.59603106
Si       1.46520688       4.19660801       4.67736917
Si       0.42534831       2.10207257       1.12026099
Si      -0.84886814       8.52751938       7.15313907
Si      -2.53953011      13.81700211       2.85529271
Si      -1.26531452       7.39155536       5.41810694
10
Lattice="3.31059906613218 -1.2857246155446365 3.373131251987726e-07 -2.554888107364038 12.86795579601149 -3.4698379180006586e-07 -1.2774448722532143 6.433977958315373 8.263842521983722" Properties=species:S:1:pos:R:3 unique_starting_index=99 config_type=initial n_minim_iter=4 stress="0.014843882883038836 -0.0024977743353907502 1.1246387441250072e-10 -0.0024977743353907502 0.002868412656344368 -1.6696087804994554e-10 1.1246387441250072e-10 -1.6696087804994554e-10 0.013892584260459532" pbc="T T T"
Si       0.81119885       7.83974531       5.64856173
Si       2.08864320       1.40576739       2.61528119
Si      -0.36364295       4.38605240       3.60912836
Si      -1.64108710      10.82003030       4.65471403
Si       0.19254871      10.63692747       3.58955673
Si       1.46999266       4.20294958       4.67428603
Si       0.42872304       2.10460505       1.11987764
Si      -0.84872161       8.53858299       7.14396494
Si      -2.54375811      13.83748131       2.85216338
Si      -1.26631431       7.40350343       5.41167879
10
Lattice="3.306454331800157 -1.2826844331659781 3.368803831069064e-07 -2.53252130427159 12.886797806960757 -3.449057675620588e-07 -1.266261461728523 6.443398963128502 8.173200873128653" Properties=species:S:1:pos:R:3 unique_starting_index=99 config_type=initial n_minim_iter=5 stress="0.00012430346982864399 -0.0040477371667101344 1.7622871164219214e-10 -0.0040477371667101344 -0.006876859890746002 -3.606596885836537e-10 1.7622871164219214e-10 -3.606596885836537e-10 -0.0013565370362528155" pbc="T T T"
Si       0.82298891       7.85489003       5.59096361
Si       2.08924987       1.41149111       2.58223767
Si      -0.36505385       4.38827054       3.56274470
Si      -1.63131461      10.83166945       4.61045604
Si       0.20711963      10.65784213       3.54439755
Si       1.47338018       4.21444324       4.62880357
Si       0.43694103       2.10780640       1.10983087
Si      -0.82932021       8.55120534       7.06337007
Si      -2.51337069      13.86286005       2.82191088
Si      -1.24711029       7.41946116       5.35128964
10
Lattice="3.298878396942892 -1.281593428390187 3.361219900844732e-07 -2.4996962177130135 12.945248546408875 -3.420808678239945e-07 -1.2498489170012015 6.472624332745876 8.158582328414075" Properties=species:S:1:pos:R:3 unique_starting_index=99 config_type=initial n_minim_iter=6 stress="-0.00537080504016255 0.0005239240041922191 -6.76280219891785e-10 0.0005239240041922191 0.010601396769493003 -1.5124996509738505e-11 -6.76280219891785e-10 -1.5124996509738505e-11 0.0014179800485615496" pbc="T T T"
Si       0.83957496       7.89532364       5.58457430
Si       2.08942337       1.42269935       2.57400843
Si      -0.35739834       4.40779971       3.55479464
Si      -1.60724655      10.88042399       4.60378756
Si       0.22828658      10.71352645       3.53546573
Si       1.47813458       4.24090218       4.62311684
Si       0.44418234       2.11894297       1.10896319
Si      -0.80566636       8.59156729       7.04961921
Si      -2.47579228      13.92647370       2.81900797
Si      -1.22594442       7.45384945       5.33957402
10
Lattice="3.281513094543193 -1.2556920372784721 3.3421284920029257e-07 -2.3787918611993084 12.962267383534432 -3.302289452056764e-07 -1.1893967300753527 6.481133750669951 8.071064941148265" Properties=species:S:1:pos:R:3 unique_starting_index=99 config_type=initial n_minim_iter=7 stress="-0.0015650165625728746 0.0030194644456392507 -8.815079822689597e-11 0.0030194644456392507 -0.0019563616358900765 3.068179651354865e-10 -8.815079822689597e-11 3.068179651354865e-10 -0.0008975346212817215" pbc="T T T"
Si       0.91556613       7.92573818       5.55392874
Si       2.10496236       1.44460446       2.51713661
Si      -0.33779793       4.40521204       3.50840472
Si      -1.52719397      10.88634574       4.56266009
Si       0.30156821      10.77358806       3.47716024
Si       1.49096403       4.29245438       4.59390494
Si       0.48749535       2.12737091       1.10549770
Si      -0.70190116       8.60850464       6.96556732
Si      -2.33415307      13.93775821       2.81237283
Si      -1.14475738       7.45662454       5.25869178
10
Lattice="3.2773916463394563 -1.263158852852881 3.3385909391579825e-07 -2.3910121758176763 12.997463687347036 -3.3169628603175104e-07 -1.1955068874877866 6.498731902583863 8.072107287979332" Properties=species:S:1:pos:R:3 unique_starting_index=99 config_type=initial n_minim_iter=8 stress="0.0028939488333968345 0.00567954400910273 -1.889995155914063e-11 0.00567954400910273 0.0023918287710056048 5.645725529758508e-10 -1.889995155914063e-11 5.645725529758508e-10 0.002666276811654169" pbc="T T T"
Si       0.91506054       7.94697264       5.56544254
Si       2.11056693       1.44824077       2.50666516
Si      -0.36379640       4.41628396       3.51836061
Si      -1.55930259      10.91501581       4.55374655
Si       0.28184261      10.79791626       3.48062367
Si       1.47734859       4.29918443       4.59148386
Si       0.49430044       2.13158393       1.10741760
Si      -0.70120623       8.63031581       6.96468976
Si      -2.34247327      13.97499508       2.82565974
Si      -1.14696742       7.47626325       5.24644722
10
Lattice="3.2924676448665005 -1.3048615370122318 3.3565678687034654e-07 -2.536392549762547 13.071232785244446 -3.4663524070209225e-07 -1.2681970684746302 6.535616451091571 8.011680054473562" Properties=species:S:1:pos:R:3 unique_starting_index=99 config_type=initial n_minim_iter=9 stress="0.0035999189071595685 -0.0031395469655582076 1.1534641530735762e-09 -0.0031395469655582076 0.0054927695321968385 -4.080962119764366e-10 1.1534641530735762e-09 -4.080962119764366e-10 -0.00781346727257751" pbc="T T T"
Si       0.85395374       7.95650504       5.54299022
Si       2.12215032       1.42088863       2.46869024
Si      -0.43978588       4.43566698       3.51705108
Si      -1.70798225      10.97128338       4.49462883
Si       0.13587663      10.83254084       3.46225000
Si       1.40407279       4.29692445       4.54943027
Si       0.48846476       2.12885255       1.10570589
Si      -0.77973209       8.66446898       6.90597423
Si      -2.49086512      14.06664487       2.82229541
Si      -1.22266908       7.53102849       5.18938430
10
Lattice="3.2961382950005444 -1.302889718651353 3.3600599116367405e-07 -2.543719289326743 13.03992250174342 -3.4713248460439557e-07 -1.271860440062906 6.519961309474134 8.029914235699541" Properties=species:S:1:pos:R:3 unique_starting_index=99 config_type=initial n_minim_iter=10 stress="0.0068883154730751085 -0.0006838029299404353 7.064949473300312e-10 -0.0006838029299404353 0.003842095289527007 -9.718728364133844e-11 7.064949473300312e-10 -9.718728364133844e-11 -0.00019365301684931452" pbc="T T T"
Si       0.85294299       7.92627808       5.56617320
Si       2.12480294       1.40631680       2.46374144
Si      -0.46198005       4.42611765       3.53285768
Si      -1.73383979      10.94607890       4.49705641
Si       0.12413472      10.81440472       3.46372987
Si       1.39599426       4.29444347       4.56618458
Si       0.50342424       2.12036418       1.10808979
Si      -0.76843598       8.64032547       6.92182452
Si      -2.48698080      14.03626762       2.83904815
Si      -1.21512139       7.51630639       5.19086574
10
Lattice="3.291204809798161 -1.2985136908286243 3.3548537071402583e-07 -2.522561796110588 13.040714334932563 -3.450425171191758e-07 -1.261281694368152 6.520357226135997 8.039134633464121" Properties=species:S:1:pos:R:3 unique_starting_index=99 config_type=initial n_minim_iter=11 stress="0.003815708983646259 -0.0001727184529509351 -2.8530814826584113e-10 -0.0001727184529509351 0.004580939680634544 -1.5953493637062522e-12 -2.8530814826584113e-10 -1.5953493637062522e-12 0.006708714557195338" pbc="T T T"
Si       0.86491359       7.93037689       5.57097070
Si       2.12619480       1.41001970       2.46816435
Si      -0.45928394       4.42316108       3.53672634
Si      -1.72056493      10.94351825       4.50240814
Si       0.13487271      10.82170706       3.46502315
Si       1.39615350       4.30134990       4.57411170
Si       0.51074207       2.12193807       1.10627592
Si      -0.75053941       8.64229528       6.93285879
Si      -2.46164926      14.03772080       2.84479289
Si      -1.20036860       7.51736365       5.19434141
10
Lattice="3.289102124905451 -1.2912648224886487 3.3522418783711467e-07 -2.4923348692454925 13.041660233084372 -3.4205530566199155e-07 -1.2461682289729163 6.520830175067299 8.01932042282443" Properties=species:S:1:pos:R:3 unique_starting_index=99 config_type=initial n_minim_iter=12 stress="-0.00442464037352641 -5.469128587690543e-05 -8.514412327932952e-11 -5.469128587690543e-05 -0.004617595810061319 2.293255736244186e-12 -8.514412327932952e-11 2.293255736244186e-12 -0.0035610091073701527" pbc="T T T"
Si       0.88615650       7.93685377       5.55128661
Si       2.13232424       1.41602363       2.46803423
Si      -0.45523173       4.41980959       3.53091053
Si      -1.70139926      10.94063971       4.48840975
Si       0.15345931      10.83378301       3.45274481
Si       1.39962663       4.31295290       4.56657583
Si       0.52172331       2.12133873       1.10487216
Si      -0.72444470       8.64216889       6.91444834
Si      -2.42348869      14.04094400       2.83608615
Si      -1.17732149       7.52011390       5.18323393
10
Lattice="3.294977173351879 -1.2992907360761996 3.3586471137060077e-07 -2.517210731018175 13.069727910451167 -3.447242112289936e-07 -1.2586061592490108 6.534864013705738 8.01315971163591" Properties=species:S:1:pos:R:3 unique_starting_index=99 config_type=initial n_minim_iter=13 stress="-0.0019825866967474346 -0.00029134310693347705 3.226841430775148e-11 -0.00029134310693347705 -0.002686188363373202 -2.594541541219434e-11 3.226841430775148e-11 -2.594541541219434e-11 -0.0022868644401048757" pbc="T T T"
Si       0.88331434       7.94210601       5.53544058
Si       2.14192001       1.40724203       2.47771954
Si      -0.47694463       4.43103559       3.54856743
Si      -1.73555009      10.96589955       4.46459213
Si       0.12556381      10.86277058       3.44881680
Si       1.38416907       4.32790663       4.56434313
Si       0.52584218       2.12224269       1.10132653
Si      -0.73276376       8.65710668       6.91183327
Si      -2.44326199      14.06856926       2.83584875
Si      -1.18465686       7.53370533       5.17731063
10
Lattice="3.2907352959605056 -1.290608092816678 3.3538116810695467e-07 -2.4636189145711542 13.1121436373807 -3.397252487937587e-07 -1.2318102506121513 6.556071877140049 8.008986771877485" Properties=species:S:1:pos:R:3 unique_starting_index=99 config_type=initial n_minim_iter=14 stress="-0.0005314283500999578 0.0006940450222646619 -6.381806459816211e-10 0.0006940450222646619 0.00302244777209832 8.944011656899005e-11 -6.381806459816211e-10 8.944011656899005e-11 0.00586007244115947" pbc="T T T"
Si       0.92165336       7.97793878       5.51583447
Si       2.15346312       1.42186694       2.49315271
Si      -0.47266761       4.44222200       3.55945691
Si      -1.70447716      10.99829383       4.44952971
Si       0.16440150      10.91863668       3.43860499
Si       1.39621084       4.36256487       4.57038200
Si       0.53978419       2.13373187       1.10593951
Si      -0.69202584       8.68980373       6.90304734
Si      -2.37477636      14.10844889       2.83525469
Si      -1.14296714       7.55237709       5.17373176
10
Lattice="3.291138780032254 -1.2889234070747777 3.354088402392624e-07 -2.4504558852441787 13.129911356057592 -3.3855105994271855e-07 -1.2252287340569772 6.56495573633912 7.989889350067045" Properties=species:S:1:pos:R:3 unique_starting_index=99 config_type=initial n_minim_iter=15 stress="0.0006118098228758185 -0.00022169380624279932 -7.715706845921639e-13 -0.00022169380624279932 0.001570218141770258 -2.8778317966959202e-11 -7.715706845921639e-13 -2.8778317966959202e-11 0.000635922729535476" pbc="T T T"
Si       0.93320440       7.99026030       5.49841223
Si       2.15843264       1.42530460       2.49147753
Si      -0.47168509       4.44604287       3.55516782
Si      -1.69691312      11.01099855       4.43472138
Si       0.17405152      10.93957271       3.42618851
Si       1.39927935       4.37461704       4.56370106
Si       0.54322723       2.13880433       1.10743761
Si      -0.68200129       8.70376005       6.88245182
Si      -2.35720402      14.12693333       2.82933068
Si      -1.13197631       7.56197767       5.16055834
10
Lattice="3.2964439703099417 -1.2878558902598694 3.3592655271411913e-07 -2.4437747850275264 13.146908384559811 -3.380133111718775e-07 -1.2218881794097136 6.573454250255814 7.944066741076376" Properties=species:S:1:pos:R:3 unique_starting_index=99 config_type=initial n_minim_iter=16 stress="0.0023343887229080747 0.0001833210673611991 3.730554730664748e-10 0.0001833210673611991 -0.001867063951487563 2.1236585876836173e-11 3.730554730664748e-10 2.1236585876836173e-11 -0.0014452936770661662" pbc="T T T"
Si       0.94702326       7.99629890       5.45566006
Si       2.16891095       1.42284469       2.48840710
Si      -0.47534881       4.44628291       3.55094730
Si      -1.69723629      11.01973711       4.39311929
Si       0.17815270      10.96012993       3.39639224
Si       1.40003998       4.38667575       4.54767473
Si       0.54697945       2.15157782       1.10748185
Si      -0.67490851       8.72503205       6.83658497
Si      -2.34288684      14.14421979       2.82075337
Si      -1.12099967       7.57076562       5.12331305
10
Lattice="3.3028482652841338 -1.2817248709200104 3.3651618314226725e-07 -2.4283026164592227 13.13797332217097 -3.3641551371015075e-07 -1.2141520913968686 6.568986718786674 7.9064239233169165" Properties=species:S:1:pos:R:3 unique_starting_index=99 config_type=initial n_minim_iter=17 stress="-0.0009311549874195237 -0.0008344684206144485 2.1474729244636653e-10 -0.0008344684206144485 -0.002942081521151072 -8.33565806000173e-11 2.1474729244636653e-10 -8.33565806000173e-11 -0.00303767164961194" pbc="T T T"
Si       0.95782259       7.99328084       5.41850676
Si       2.17197419       1.42429416       2.48791758
Si      -0.46869228       4.43669882       3.55001042
Si      -1.68284367      11.00568549       4.35641335
Si       0.19763778      10.95346129       3.36787647
Si       1.41178897       4.38447464       4.53854767
Si       0.54956201       2.16423399       1.11068834
Si      -0.66458986       8.73322070       6.79573567
Si      -2.31954215      14.13457021       2.81571167
Si      -1.10539107       7.56558357       5.09071193
10
Lattice="3.3007736921122786 -1.2842764663030724 3.3632930868560665e-07 -2.4225245226451944 13.174271225355492 -3.3610806983428663e-07 -1.2112630421980422 6.587135670210082 7.883287048293412" Properties=species:S:1:pos:R:3 unique_starting_index=99 config_type=initial n_minim_iter=18 stress="-0.0010616794400209056 0.0011304531098785032 -1.5289075986670685e-10 0.0011304531098785032 0.005018694552762965 7.82364605167508e-11 -1.5289075986670685e-10 7.82364605167508e-11 0.00039843344106287655" pbc="T T T"
Si       0.95996431       8.01634788       5.40120978
Si       2.17122686       1.42921225       2.48207769
Si      -0.46889116       4.44117088       3.55315252
Si      -1.68015350      11.02830650       4.33013438
Si       0.20106901      10.98200503       3.34471064
Si       1.41233116       4.39486943       4.53857663
Si       0.55347717       2.17696579       1.11185056
Si      -0.65778565       8.76410144       6.77143657
Si      -2.31445967      14.17740833       2.81650504
Si      -1.10319763       7.59027274       5.06678168
10
Lattice="3.2999452794899167 -1.2862137483860803 3.3626138897315205e-07 -2.426122171395259 13.182782420981153 -3.365265480643771e-07 -1.2130618659918384 6.591391267980089 7.877419209333899" Properties=species:S:1:pos:R:3 unique_starting_index=99 config_type=initial n_minim_iter=19 stress="0.00025449449247025497 0.0014781756987790457 -6.46390301905464e-10 0.0014781756987790457 0.006030310802782225 1.5108038491620714e-10 -6.46390301905464e-10 1.5108038491620714e-10 0.006671112014309708" pbc="T T T"
Si       0.95365517       8.02259444       5.39260862
Si       2.16671654       1.43120321       2.48481101
Si      -0.46661866       4.43783775       3.56279832
Si      -1.67967982      11.02922897       4.31462074
Si       0.20244026      10.98478394       3.33051605
Si       1.41550122       4.39339274       4.54690338
Si       0.55204286       2.18263527       1.11218318
Si      -0.66101878       8.77402652       6.76523611
Si      -2.32363110      14.18949693       2.81794496
Si      -1.11057023       7.59810574       5.05947393
10
Lattice="3.300449788973444 -1.2884218249139807 3.363274775547489e-07 -2.430839768153175 13.193767497560081 -3.370740166928474e-07 -1.215420662303371 6.596883806117233 7.856547620621729" Properties=species:S:1:pos:R:3 unique_starting_index=99 config_type=initial n_minim_iter=20 stress="0.001113981549992748 0.00021966887357294983 -2.803990504567452e-10 0.00021966887357294983 -0.0005128489891278688 5.4152957914694004e-11 -2.803990504567452e-10 5.4152957914694004e-11 0.00392846798552199" pbc="T T T"
Si       0.94722387       8.03066560       5.36927101
Si       2.16264404       1.43378183       2.48727702
Si      -0.46558818       4.43208183       3.57524788
Si      -1.68100813      11.02896559       4.28129959
Si       0.20512070      10.99039222       3.30270024
Si       1.42054046       4.39350848       4.55384761
Si       0.55139364       2.18914652       1.11208853
Si      -0.66402680       8.78603031       6.74445918
Si      -2.33442038      14.20592473       2.81414823
Si      -1.11900072       7.60904100       5.04239907
10
Lattice="3.297083217092463 -1.2954746933500356 3.3604547520635876e-07 -2.42130748110796 13.28223660665999 -3.367754486181287e-07 -1.2106545100878183 6.641118360026721 7.768788449596542" Properties=species:S:1:pos:R:3 unique_starting_index=99 config_type=initial n_minim_iter=21 stress="0.0021734725549834664 -0.0006690501300129223 2.258188689033627e-10 -0.0006690501300129223 -0.0008814257245766144 -6.027406933290445e-11 2.258188689033627e-10 -6.027406933290445e-11 -5.706300749629959e-05" pbc="T T T"
Si       0.94865062       8.09039671       5.28817754
Si       2.15930464       1.44927838       2.48061132
Si      -0.47111005       4.43294900       3.60147865
Si      -1.68176384      11.07406731       4.16730965
Si       0.21804855      11.06453742       3.21015837
Si       1.42870216       4.42341912       4.55863030
Si       0.56288670       2.21802635       1.11045197
Si      -0.64776759       8.85914470       6.65833656
Si      -2.33092273      14.31273320       2.79919961
Si      -1.12026920       7.67161492       4.96958851
