22
Lattice="5.516485304029197 -0.7203637058426199 -1.3820683507302864 -2.4950063315371556 11.604003725428438 -2.3272225515623766 -4.575080411651626 -5.778295923266018 10.849970505519913" Properties=species:S:1:pos:R:3 unique_starting_index=18 config_type=initial n_minim_iter=1 energy=-3586.0552344149423 free_energy=-3586.0552344149423 pbc="T T T"
Si       0.11842093      10.48787035      -1.30386585
Si      -1.53785587      -1.45204576       5.61094263
Si      -3.76170223      -3.88038608       9.54239316
Si       0.25217217      -3.13227575       8.55281324
Si      -5.56529375      -0.50641151       8.86531368
Si       4.29432297       2.27128041      -0.25814223
Si       2.44531204       0.97068409       0.01470780
Si      -2.06958245       1.76493990       8.24792296
Si      -1.70264847      -3.83156622       9.03173465
Si      -2.58060538       0.96092227       5.76651480
Si       1.20534583      -0.75841984       2.87197291
Si      -2.97335273       3.47623258       4.80359463
Si      -3.32205943      -2.88440942       6.41055282
Si      -0.89767048       7.54156230      -1.17168932
Si       1.15436668       1.18633456       3.73051955
Si       0.76532754       8.59107640      -2.00013558
Si      -0.89963957      -1.70398914       3.23135450
Si       2.50609667      -5.36190298       6.18771839
Si       0.26493638       2.76222914       2.62612330
Si      -3.26412026       2.70559245       6.76320313
Si      -1.20158470       4.16031526       3.26675890
Si      -1.34454674      -2.88010566       7.17008739
22
Lattice="5.5163598390158155 -0.7203666027283414 -1.3821179954727074 -2.4949204427867717 11.603909227369023 -2.3271162455990995 -4.575061033070292 -5.778183016824041 10.849951302677484" Properties=species:S:1:pos:R:3 unique_starting_index=18 config_type=initial n_minim_iter=2 stress="-0.00020938682593731744 2.9620518842973657e-06 -7.396927922196458e-05 2.9620518842973657e-06 -0.00011230654426253396 4.998915360251495e-06 -7.396927922196458e-05 4.998915360251495e-06 -0.00018957516179925573" pbc="T T T"
Si       0.11843058      10.48779210      -1.30379472
Si      -1.53787043      -1.45200323       5.61093962
Si      -3.76169740      -3.88029157       9.54238530
Si       0.25209284      -3.13219643       8.55276304
Si      -5.56523483      -0.50634578       8.86534139
Si       4.29421610       2.27126486      -0.25816257
Si       2.44525144       0.97067267       0.01469758
Si      -2.06960342       1.76498327       8.24794011
Si      -1.70268532      -3.83147688       9.03171002
Si      -2.58058838       0.96095599       5.76653605
Si       1.20529599      -0.75839646       2.87195168
Si      -2.97331306       3.47624450       4.80363397
Si      -3.32202222      -2.88434252       6.41055255
Si      -0.89762546       7.54150450      -1.17162932
Si       1.15430260       1.18635240       3.73051049
Si       0.76533240       8.59100946      -2.00007069
Si      -0.89965237      -1.70396275       3.23133579
Si       2.50597330      -5.36182354       6.18764312
Si       0.26491883       2.76222394       2.62613876
Si      -3.26409745       2.70562327       6.76324760
Si      -1.20158244       4.16031998       3.26679967
Si      -1.34457657      -2.88003651       7.17006530
22
Lattice="5.516290881984452 -0.7204042066404962 -1.3822293666991587 -2.494875350892622 11.604022956213488 -2.326991834446426 -4.575042641619057 -5.778039398682429 10.85043869022237" Properties=species:S:1:pos:R:3 unique_starting_index=18 config_type=initial n_minim_iter=3 stress="-5.086498349276001e-05 5.129395163768966e-05 -0.00013740510738500486 5.129395163768966e-05 0.00021359965381748745 3.127427816273751e-05 -0.00013740510738500486 3.127427816273751e-05 0.0003008601513850865" pbc="T T T"
Si       0.11842332      10.48791694      -1.30366696
Si      -1.53789740      -1.45193616       5.61123355
Si      -3.76172334      -3.88013292       9.54285448
Si       0.25206248      -3.13206968       8.55309687
Si      -5.56521272      -0.50615411       8.86582578
Si       4.29414222       2.27129240      -0.25814698
Si       2.44521771       0.97065324       0.01473164
Si      -2.06961779       1.76516443       8.24843814
Si      -1.70269915      -3.83133659       9.03214016
Si      -2.58056134       0.96108962       5.76689278
Si       1.20529454      -0.75835938       2.87208160
Si      -2.97325787       3.47640971       4.80396438
Si      -3.32196732      -2.88422740       6.41085697
Si      -0.89755363       7.54158967      -1.17154493
Si       1.15424353       1.18643586       3.73072731
Si       0.76534525       8.59110997      -1.99996770
Si      -0.89968556      -1.70395719       3.23143624
Si       2.50587562      -5.36177550       6.18782160
Si       0.26496119       2.76229360       2.62635011
Si      -3.26409099       2.70581689       6.76372906
Si      -1.20158521       4.16050084       3.26710516
Si      -1.34457804      -2.87993239       7.17039777
22
Lattice="5.516306206514208 -0.7204694838303801 -1.3820025766047876 -2.495152040743834 11.60356745427528 -2.326901191938323 -4.5746011070581725 -5.777616217548595 10.849977880008394" Properties=species:S:1:pos:R:3 unique_starting_index=18 config_type=initial n_minim_iter=4 stress="0.00010531658985167704 -1.17045606545225e-05 6.356351990179177e-05 -1.17045606545225e-05 -0.00013732322946770833 0.00019344139227406868 6.356351990179177e-05 0.00019344139227406868 4.7496512862929236e-05" pbc="T T T"
Si       0.11821017      10.48748514      -1.30354020
Si      -1.53771869      -1.45182957       5.61106123
Si      -3.76140107      -3.87979421       9.54249529
Si       0.25243846      -3.13185619       8.55281018
Si      -5.56495630      -0.50592763       8.86541801
Si       4.29412386       2.27113873      -0.25795575
Si       2.44523140       0.97053935       0.01485351
Si      -2.06936896       1.76519891       8.24822210
Si      -1.70233696      -3.83105244       9.03185582
Si      -2.58036778       0.96116784       5.76671601
Si       1.20546254      -0.75832299       2.87205405
Si      -2.97311891       3.47638162       4.80378854
Si      -3.32169276      -2.88395642       6.41056284
Si      -0.89764029       7.54129088      -1.17148138
Si       1.15434965       1.18639564       3.73070378
Si       0.76517134       8.59076472      -1.99975747
Si      -0.89958752      -1.70388855       3.23126426
Si       2.50616488      -5.36152578       6.18768805
Si       0.26508715       2.76219247       2.62634989
Si      -3.26392335       2.70584930       6.76354308
Si      -1.20153704       4.16046165       3.26709142
Si      -1.34425148      -2.87972675       7.17018202
22
Lattice="5.516227296448208 -0.7204567317375284 -1.3818600144215345 -2.4952428517169625 11.603821913826792 -2.327405756957283 -4.5743509570699485 -5.778136623704867 10.849920502547073" Properties=species:S:1:pos:R:3 unique_starting_index=18 config_type=initial n_minim_iter=5 stress="-7.283160650639049e-06 -2.0383762653610283e-05 1.8386017269852692e-05 -2.0383762653610283e-05 -0.00010165002779775968 -0.00014958637685204198 1.8386017269852692e-05 -0.00014958637685204198 8.723549104071232e-05" pbc="T T T"
Si       0.11809147      10.48767102      -1.30400686
Si      -1.53764786      -1.45211732       5.61098018
Si      -3.76123558      -3.88022923       9.54241323
Si       0.25258346      -3.13228328       8.55267716
Si      -5.56478381      -0.50626180       8.86514313
Si       4.29403990       2.27114353      -0.25799043
Si       2.44519602       0.97048912       0.01486549
Si      -2.06925615       1.76484003       8.24792933
Si      -1.70219359      -3.83150336       9.03179228
Si      -2.58025680       0.96096000       5.76652783
Si       1.20553165      -0.75848185       2.87203255
Si      -2.97300754       3.47623299       4.80347670
Si      -3.32151241      -2.88421663       6.41049064
Si      -0.89763902       7.54143358      -1.17181840
Si       1.15437127       1.18619957       3.73059016
Si       0.76508267       8.59097170      -2.00006927
Si      -0.89954444      -1.70409186       3.23121445
Si       2.50623527      -5.36187875       6.18780466
Si       0.26513789       2.76210796       2.62616391
Si      -3.26382419       2.70560835       6.76324578
Si      -1.20150199       4.16043286       3.26685448
Si      -1.34408908      -2.88009623       7.17013691
22
Lattice="5.516224549198057 -0.7205111233405482 -1.3817368734123405 -2.495271738281696 11.604436679265143 -2.327182413826844 -4.574243870445701 -5.778334417621484 10.849247807424746" Properties=species:S:1:pos:R:3 unique_starting_index=18 config_type=initial n_minim_iter=6 stress="5.01677042757662e-05 -3.511789586051149e-05 -5.815535290183077e-06 -3.511789586051149e-05 0.00023759358213121593 3.3334800937264885e-05 -5.815535290183077e-06 3.3334800937264885e-05 -0.00018698578890968077" pbc="T T T"
Si       0.11804776      10.48826404      -1.30384870
Si      -1.53763950      -1.45217687       5.61066920
Si      -3.76118859      -3.88033406       9.54186136
Si       0.25267353      -3.13235569       8.55211374
Si      -5.56472303      -0.50614155       8.86460572
Si       4.29404280       2.27126608      -0.25789778
Si       2.44520412       0.97049241       0.01492100
Si      -2.06918730       1.76499927       8.24750900
Si      -1.70215109      -3.83164391       9.03126909
Si      -2.58020211       0.96111046       5.76624256
Si       1.20561561      -0.75851587       2.87187859
Si      -2.97293036       3.47646642       4.80325132
Si      -3.32141059      -2.88425766       6.41008722
Si      -0.89757843       7.54182739      -1.17169220
Si       1.15443203       1.18628600       3.73044698
Si       0.76506153       8.59144100      -1.99988026
Si      -0.89951453      -1.70419663       3.23100320
Si       2.50627862      -5.36208850       6.18744142
Si       0.26519494       2.76230854       2.62605204
Si      -3.26377436       2.70585120       6.76292263
Si      -1.20144697       4.16077351       3.26677454
Si      -1.34399391      -2.88020981       7.16972354
22
Lattice="5.516098058953658 -0.7203747965724823 -1.3815785539543148 -2.495058966078196 11.604105121432974 -2.3272666996074105 -4.573967058144105 -5.778275951589413 10.849230576804647" Properties=species:S:1:pos:R:3 unique_starting_index=18 config_type=initial n_minim_iter=7 stress="-0.00012829460114789033 0.0001525848853615412 0.00017653779006797068 0.0001525848853615412 4.481296541821893e-05 1.2961125646480755e-05 0.00017653779006797068 1.2961125646480755e-05 4.271411262734547e-05" pbc="T T T"
Si       0.11816017      10.48808277      -1.30391375
Si      -1.53759767      -1.45226882       5.61071261
Si      -3.76103900      -3.88031220       9.54191624
Si       0.25286202      -3.13223883       8.55201842
Si      -5.56445390      -0.50612006       8.86449890
Si       4.29403354       2.27130445      -0.25773770
Si       2.44519886       0.97038624       0.01506370
Si      -2.06889870       1.76485093       8.24756964
Si      -1.70204874      -3.83165972       9.03134316
Si      -2.57998575       0.96114288       5.76631113
Si       1.20580441      -0.75851704       2.87193182
Si      -2.97262339       3.47625356       4.80327296
Si      -3.32112981      -2.88413699       6.41004905
Si      -0.89726826       7.54159173      -1.17173348
Si       1.15465323       1.18628651       3.73057623
Si       0.76514073       8.59129790      -1.99995724
Si      -0.89940077      -1.70426969       3.23102153
Si       2.50626012      -5.36183944       6.18756390
Si       0.26538028       2.76231113       2.62608576
Si      -3.26349488       2.70576337       6.76297439
Si      -1.20115256       4.16082342       3.26691601
Si      -1.34374969      -2.88021619       7.16973677
22
Lattice="5.516318635730483 -0.7205124627426968 -1.3817301991753015 -2.4953911481556483 11.603948747098354 -2.327212378216366 -4.574249494361207 -5.778056334006844 10.849333876340623" Properties=species:S:1:pos:R:3 unique_starting_index=18 config_type=initial n_minim_iter=8 stress="1.8405135785133003e-05 -8.666310357314562e-05 -1.8025107119926357e-05 -8.666310357314562e-05 -4.1151144112439985e-06 6.857925541874519e-06 -1.8025107119926357e-05 6.857925541874519e-06 2.9009057132316716e-05" pbc="T T T"
Si       0.11786901      10.48790374      -1.30397273
Si      -1.53782401      -1.45225346       5.61074184
Si      -3.76136798      -3.88016716       9.54202490
Si       0.25268946      -3.13218862       8.55190603
Si      -5.56490116      -0.50592813       8.86460179
Si       4.29410229       2.27113535      -0.25786735
Si       2.44524314       0.97023143       0.01502106
Si      -2.06926029       1.76481254       8.24759630
Si      -1.70228793      -3.83159550       9.03137354
Si      -2.58025054       0.96121735       5.76639602
Si       1.20583999      -0.75856172       2.87188046
Si      -2.97292882       3.47621732       4.80335410
Si      -3.32128652      -2.88394766       6.41012236
Si      -0.89740176       7.54144421      -1.17172178
Si       1.15457423       1.18623425       3.73053130
Si       0.76496381       8.59114204      -2.00003430
Si      -0.89945502      -1.70426655       3.23104245
Si       2.50627542      -5.36178604       6.18747045
Si       0.26524752       2.76226611       2.62605930
Si      -3.26387985       2.70580697       6.76306640
Si      -1.20134965       4.16084049       3.26698716
Si      -1.34387982      -2.88016209       7.16974276
22
Lattice="5.516501978539592 -0.7202580566832003 -1.3818181628379567 -2.49494660464799 11.603557164702412 -2.327187053086254 -4.574904067325539 -5.7781901412026215 10.84915204195165" Properties=species:S:1:pos:R:3 unique_starting_index=18 config_type=initial n_minim_iter=9 stress="0.00020358143016411767 0.00023952080471858702 -0.00016531406426042604 0.00023952080471858702 -0.00010306989757499051 -2.1741969275405896e-05 -0.00016531406426042604 -2.1741969275405896e-05 -0.00011418057023152925" pbc="T T T"
Si       0.11825421      10.48769310      -1.30411537
Si      -1.53820524      -1.45239043       5.61057821
Si      -3.76194336      -3.88037858       9.54189212
Si       0.25226794      -3.13215222       8.55158346
Si      -5.56543513      -0.50613584       8.86439638
Si       4.29434002       2.27123804      -0.25804367
Si       2.44536368       0.97017392       0.01499570
Si      -2.06952308       1.76452539       8.24736868
Si      -1.70274509      -3.83169891       9.03120611
Si      -2.58040071       0.96106835       5.76633385
Si       1.20590454      -0.75854257       2.87175794
Si      -2.97293206       3.47591714       4.80326975
Si      -3.32159621      -2.88395776       6.41001601
Si      -0.89698725       7.54114147      -1.17171878
Si       1.15453238       1.18623977       3.73033561
Si       0.76539720       8.59104143      -2.00017638
Si      -0.89959230      -1.70438691       3.23099321
Si       2.50589776      -5.36154048       6.18721843
Si       0.26528780       2.76222618       2.62596895
Si      -3.26408568       2.70559451       6.76296877
Si      -1.20114925       4.16076170       3.26697329
Si      -1.34416961      -2.88028901       7.16957263
22
Lattice="5.516290976756994 -0.7204211842486554 -1.3816538674250698 -2.495284245156581 11.60363337351145 -2.3273090824201055 -4.574265236411151 -5.77810478813883 10.848987119753248" Properties=species:S:1:pos:R:3 unique_starting_index=18 config_type=initial n_minim_iter=10 stress="-4.51360902549706e-05 -8.047955272191786e-06 1.7104685489450716e-05 -8.047955272191786e-06 1.7559018634126315e-05 -2.827859661144641e-05 1.7104685489450716e-05 -2.827859661144641e-05 -4.0956588956532184e-05" pbc="T T T"
Si       0.11776791      10.48778170      -1.30429044
Si      -1.53816461      -1.45245858       5.61043805
Si      -3.76147232      -3.88044095       9.54180951
Si       0.25244459      -3.13217262       8.55148753
Si      -5.56517098      -0.50588282       8.86408025
Si       4.29411643       2.27108503      -0.25803724
Si       2.44525409       0.96989483       0.01512068
Si      -2.06936883       1.76441259       8.24726219
Si      -1.70236078      -3.83176751       9.03120370
Si      -2.58010720       0.96115832       5.76632482
Si       1.20617176      -0.75862992       2.87176790
Si      -2.97269087       3.47590383       4.80318402
Si      -3.32109772      -2.88371062       6.40988024
Si      -0.89704437       7.54104769      -1.17175438
Si       1.15451221       1.18623503       3.73028071
Si       0.76506967       8.59113959      -2.00034974
Si      -0.89935086      -1.70453454       3.23098360
Si       2.50600343      -5.36155322       6.18721518
Si       0.26523058       2.76228965       2.62598684
Si      -3.26393736       2.70576143       6.76291478
Si      -1.20088637       4.16095268       3.26705754
Si      -1.34376501      -2.88041707       7.16951318
22
Lattice="5.516292383566664 -0.7206042649592952 -1.3819088860529412 -2.495486312490481 11.602526479461496 -2.326428403134863 -4.574286369382739 -5.776582169764599 10.849350392375015" Properties=species:S:1:pos:R:3 unique_starting_index=18 config_type=initial n_minim_iter=11 stress="-3.4955263554115184e-05 4.5481718639448306e-06 -1.6611335317288158e-05 4.5481718639448306e-06 -2.804663318538052e-05 1.6567880892366415e-05 -1.6611335317288158e-05 1.6567880892366415e-05 -2.8504108028228463e-05" pbc="T T T"
Si       0.11730769      10.48701877      -1.30374351
Si      -1.53867315      -1.45206538       5.61064005
Si      -3.76153824      -3.87950600       9.54235877
Si       0.25228319      -3.13121360       8.55202973
Si      -5.56577055      -0.50468148       8.86448859
Si       4.29417426       2.27074167      -0.25809552
Si       2.44523801       0.96936328       0.01522497
Si      -2.06967301       1.76470005       8.24807587
Si      -1.70262359      -3.83079946       9.03158610
Si      -2.58024416       0.96185995       5.76703826
Si       1.20659346      -0.75835799       2.87190814
Si      -2.97244696       3.47608056       4.80393281
Si      -3.32108177      -2.88243123       6.41003423
Si      -0.89681948       7.54006727      -1.17109443
Si       1.15442292       1.18631268       3.73061798
Si       0.76497791       8.59058387      -1.99981683
Si      -0.89930123      -1.70447981       3.23104571
Si       2.50572869      -5.36035991       6.18710461
Si       0.26498295       2.76248563       2.62644672
Si      -3.26420850       2.70640109       6.76371384
Si      -1.20040376       4.16134489       3.26806114
Si      -1.34373475      -2.87975008       7.16972921
22
Lattice="5.516216741036752 -0.7207570990347959 -1.3820883064830765 -2.4956659753349375 11.601922013373118 -2.3259859247949817 -4.574186193437571 -5.775684587580524 10.849801563045437" Properties=species:S:1:pos:R:3 unique_starting_index=18 config_type=initial n_minim_iter=12 stress="-3.565190403384499e-05 6.198701389047033e-06 -8.281959610165282e-06 6.198701389047033e-06 -3.47634448547529e-05 2.5582968951629503e-05 -8.281959610165282e-06 2.5582968951629503e-05 -1.1808235658275267e-05" pbc="T T T"
Si       0.11689528      10.48665664      -1.30350483
Si      -1.53902782      -1.45184258       5.61079404
Si      -3.76165305      -3.87897245       9.54295803
Si       0.25234296      -3.13078471       8.55263798
Si      -5.56613217      -0.50386255       8.86484215
Si       4.29413721       2.27048831      -0.25815944
Si       2.44520120       0.96899595       0.01523827
Si      -2.06999015       1.76487086       8.24871778
Si      -1.70265858      -3.83026659       9.03191051
Si      -2.58028195       0.96234110       5.76763045
Si       1.20691704      -0.75823634       2.87204907
Si      -2.97226792       3.47614642       4.80445014
Si      -3.32104756      -2.88155409       6.41021109
Si      -0.89667648       7.53946043      -1.17072689
Si       1.15436126       1.18650133       3.73085827
Si       0.76492439       8.59023829      -1.99959022
Si      -0.89921239      -1.70451499       3.23117149
Si       2.50553817      -5.35964586       6.18723610
Si       0.26485656       2.76253146       2.62677056
Si      -3.26433363       2.70675622       6.76427549
Si      -1.20003905       4.16173766       3.26881656
Si      -1.34377840      -2.87954486       7.17005948
22
Lattice="5.516147706310862 -0.7208629512413618 -1.382212703515915 -2.495799760206419 11.601838717412356 -2.3259218549894585 -4.574169708625967 -5.775474416688628 10.85006331426782" Properties=species:S:1:pos:R:3 unique_starting_index=18 config_type=initial n_minim_iter=13 stress="-1.3058991197577979e-05 -6.257838717834443e-06 -1.278280605936429e-05 -6.257838717834443e-06 -2.4237865588412936e-05 1.7190972474371809e-06 -1.278280605936429e-05 1.7190972474371809e-06 -2.8300118929833714e-05" pbc="T T T"
Si       0.11663031      10.48661436      -1.30356121
Si      -1.53923447      -1.45187130       5.61087246
Si      -3.76175381      -3.87890174       9.54327061
Si       0.25234026      -3.13078779       8.55288346
Si      -5.56638650      -0.50360341       8.86497703
Si       4.29404002       2.27034727      -0.25825663
Si       2.44517396       0.96886660       0.01510226
Si      -2.07027849       1.76486221       8.24891823
Si      -1.70274483      -3.83026361       9.03221063
Si      -2.58030538       0.96248302       5.76787791
Si       1.20704170      -0.75822685       2.87209970
Si      -2.97220766       3.47619141       4.80459436
Si      -3.32110060      -2.88122493       6.41029709
Si      -0.89664584       7.53929043      -1.17065306
Si       1.15423312       1.18652540       3.73090533
Si       0.76480810       8.59019577      -1.99963838
Si      -0.89914366      -1.70459074       3.23128545
Si       2.50537047      -5.35949206       6.18731824
Si       0.26475217       2.76252762       2.62681782
Si      -3.26445432       2.70685471       6.76447311
Si      -1.19991344       4.16198377       3.26911637
Si      -1.34382243      -2.87955442       7.17014775
22
Lattice="5.51578463814168 -0.720995751735389 -1.3824683350548659 -2.495755352476273 11.601850715314376 -2.3257217344226686 -4.574075226922255 -5.775194054669091 10.850544051955255" Properties=species:S:1:pos:R:3 unique_starting_index=18 config_type=initial n_minim_iter=14 stress="-3.513244755702761e-05 -1.2185624231270487e-05 -2.1506709222561654e-05 -1.2185624231270487e-05 -2.4820496441284494e-05 2.1931563019910682e-05 -2.1506709222561654e-05 2.1931563019910682e-05 7.483568991131898e-06" pbc="T T T"
Si       0.11640636      10.48658694      -1.30353966
Si      -1.53945541      -1.45193744       5.61110403
Si      -3.76177387      -3.87880746       9.54380027
Si       0.25217479      -3.13072690       8.55317314
Si      -5.56654637      -0.50326607       8.86532834
Si       4.29367009       2.27019802      -0.25832270
Si       2.44499968       0.96873115       0.01496009
Si      -2.07063488       1.76494586       8.24929161
Si      -1.70282010      -3.83008402       9.03252120
Si      -2.58020639       0.96265731       5.76828538
Si       1.20707640      -0.75813297       2.87221038
Si      -2.97200724       3.47635541       4.80489147
Si      -3.32118392      -2.88080587       6.41049333
Si      -0.89653516       7.53917738      -1.17047836
Si       1.15396894       1.18656244       3.73104276
Si       0.76454482       8.59026194      -1.99965583
Si      -0.89898407      -1.70462907       3.23156380
Si       2.50485790      -5.35927511       6.18741294
Si       0.26458495       2.76260868       2.62688215
Si      -3.26450362       2.70707538       6.76485492
Si      -1.19969292       4.16241948       3.26960930
Si      -1.34389355      -2.87958276       7.17047207
22
Lattice="5.515549352384263 -0.7210528912530106 -1.382582687167719 -2.4957020967483143 11.602341194753636 -2.32590237255162 -4.574022923257447 -5.775560810754148 10.8508239418183" Properties=species:S:1:pos:R:3 unique_starting_index=18 config_type=initial n_minim_iter=15 stress="1.632748049558417e-05 -9.350478727722127e-06 5.68433881024685e-06 -9.350478727722127e-06 -1.6679573209815159e-06 -3.6726958305670122e-06 5.68433881024685e-06 -3.6726958305670122e-06 -7.398285775859419e-06" pbc="T T T"
Si       0.11628931      10.48695093      -1.30384257
Si      -1.53964620      -1.45241060       5.61126739
Si      -3.76174959      -3.87932053       9.54411491
Si       0.25211917      -3.13104903       8.55324382
Si      -5.56674016      -0.50326873       8.86532187
Si       4.29335355       2.27017871      -0.25837356
Si       2.44490752       0.96866759       0.01480020
Si      -2.07091842       1.76471400       8.24930929
Si      -1.70284094      -3.83035112       9.03269775
Si      -2.58003302       0.96262830       5.76845225
Si       1.20719139      -0.75811364       2.87229599
Si      -2.97184065       3.47634939       4.80490950
Si      -3.32132547      -2.88076201       6.41057337
Si      -0.89645118       7.53933638      -1.17050545
Si       1.15385922       1.18660394       3.73102848
Si       0.76442174       8.59078582      -1.99984709
Si      -0.89886409      -1.70488635       3.23175305
Si       2.50429296      -5.35939186       6.18746943
Si       0.26453799       2.76272847       2.62680525
Si      -3.26453930       2.70713172       6.76471536
Si      -1.19930034       4.16293952       3.26985954
Si      -1.34410208      -2.88004509       7.17051003
22
Lattice="5.515260557297899 -0.7210818348108935 -1.382806850089205 -2.4954913278247095 11.602889381291337 -2.326002621890102 -4.574108050288147 -5.775922339823291 10.851355381748716" Properties=species:S:1:pos:R:3 unique_starting_index=18 config_type=initial n_minim_iter=16 stress="2.6132738935932777e-05 1.1189086628395696e-05 -8.888636805315784e-06 1.1189086628395696e-05 2.2343400818317775e-05 6.771659879008312e-06 -8.888636805315784e-06 6.771659879008312e-06 3.1849580194910995e-05" pbc="T T T"
Si       0.11626331      10.48749516      -1.30401021
Si      -1.53987429      -1.45287006       5.61154604
Si      -3.76180214      -3.87985218       9.54464851
Si       0.25188787      -3.13127137       8.55340657
Si      -5.56700917      -0.50332738       8.86558758
Si       4.29296762       2.27024425      -0.25844860
Si       2.44480074       0.96866702       0.01459181
Si      -2.07128694       1.76455957       8.24953752
Si      -1.70308865      -3.83063022       9.03301329
Si      -2.57993976       0.96266617       5.76875251
Si       1.20722547      -0.75804609       2.87242871
Si      -2.97168348       3.47639564       4.80504967
Si      -3.32166814      -2.88078541       6.41081905
Si      -0.89632793       7.53954811      -1.17046173
Si       1.15373827       1.18671058       3.73106032
Si       0.76451267       8.59125211      -2.00005339
Si      -0.89884546      -1.70514317       3.23196542
Si       2.50354879      -5.35938349       6.18759042
Si       0.26455063       2.76289176       2.62691674
Si      -3.26457772       2.70722257       6.76488761
Si      -1.19882861       4.16349060       3.27020837
Si      -1.34427731      -2.88047802       7.17076361
22
Lattice="5.514900569218616 -0.7212655269180883 -1.3828114828585945 -2.4957325492142286 11.603621136236907 -2.3264622330813696 -4.5736178442386946 -5.7764537277763415 10.851665692530752" Properties=species:S:1:pos:R:3 unique_starting_index=18 config_type=initial n_minim_iter=17 stress="7.887348662724105e-05 -1.2298080883437199e-05 1.8533158191533942e-05 -1.2298080883437199e-05 -5.179774174079734e-06 -1.1089915056916506e-06 1.8533158191533942e-05 -1.1089915056916506e-06 4.523619793027919e-05" pbc="T T T"
Si       0.11583731      10.48815595      -1.30439560
Si      -1.53988884      -1.45356402       5.61164260
Si      -3.76156759      -3.88064760       9.54504158
Si       0.25204807      -3.13178042       8.55345081
Si      -5.56708587      -0.50352939       8.86543082
Si       4.29240206       2.27022112      -0.25841647
Si       2.44467828       0.96862449       0.01431429
Si      -2.07139728       1.76409857       8.24938810
Si      -1.70284440      -3.83119033       9.03310625
Si      -2.57967250       0.96270460       5.76879973
Si       1.20740966      -0.75802405       2.87259243
Si      -2.97134926       3.47647251       4.80479923
Si      -3.32165163      -2.88090009       6.41099593
Si      -0.89646823       7.53984127      -1.17059612
Si       1.15369003       1.18658624       3.73097339
Si       0.76410435       8.59174423      -2.00048745
Si      -0.89861951      -1.70549834       3.23218703
Si       2.50294877      -5.35942061       6.18777860
Si       0.26463322       2.76306183       2.62701216
Si      -3.26442962       2.70724415       6.76480276
Si      -1.19807484       4.16412361       3.27038846
Si      -1.34433263      -2.88119538       7.17082002
22
Lattice="5.514156619587081 -0.7212446592316266 -1.3826567650462427 -2.4953484654861335 11.605345876519381 -2.3270858585554928 -4.572943804209047 -5.777928455102483 10.851534684929614" Properties=species:S:1:pos:R:3 unique_starting_index=18 config_type=initial n_minim_iter=18 stress="4.5052053914088155e-05 1.8760939367758526e-05 2.0905798960747124e-05 1.8760939367758526e-05 3.5192236605288724e-05 -3.341987517070643e-06 2.0905798960747124e-05 -3.341987517070643e-06 4.0316526313968236e-05" pbc="T T T"
Si       0.11595149      10.48965657      -1.30492699
Si      -1.53975975      -1.45452266       5.61137206
Si      -3.76125797      -3.88211526       9.54504313
Si       0.25211583      -3.13278145       8.55322605
Si      -5.56672526      -0.50430823       8.86484124
Si       4.29185826       2.27068180      -0.25829051
Si       2.44444630       0.96875528       0.01411913
Si      -2.07109077       1.76349666       8.24876313
Si      -1.70252709      -3.83241460       9.03289199
Si      -2.57916742       0.96263419       5.76846016
Si       1.20747892      -0.75824343       2.87257123
Si      -2.97063261       3.47659153       4.80433936
Si      -3.32159705      -2.88154977       6.41086178
Si      -0.89624012       7.54086355      -1.17085278
Si       1.15368271       1.18674984       3.73069979
Si       0.76388242       8.59321180      -2.00088774
Si      -0.89843270      -1.70610351       3.23223312
Si       2.50196468      -5.35998248       6.18783034
Si       0.26487884       2.76339808       2.62692618
Si      -3.26378409       2.70733305       6.76431044
Si      -1.19696627       4.16502764       3.27029161
Si      -1.34416358      -2.88236086       7.17055132
22
Lattice="5.513601803896402 -0.7213676284348555 -1.3823603643308298 -2.4954671486755946 11.606829882187464 -2.3278031031346833 -4.572063075552484 -5.779201879424907 10.85103618389066" Properties=species:S:1:pos:R:3 unique_starting_index=18 config_type=initial n_minim_iter=19 stress="3.065887689666576e-05 1.86858149706301e-05 4.5209153842175754e-05 1.86858149706301e-05 4.705875369578079e-05 -1.5742304128819794e-05 4.5209153842175754e-05 -1.5742304128819794e-05 -4.3421013921293846e-06" pbc="T T T"
Si       0.11576223      10.49084690      -1.30549905
Si      -1.53951053      -1.45554050       5.61093526
Si      -3.76078590      -3.88344824       9.54469075
Si       0.25237327      -3.13377327       8.55284983
Si      -5.56636298      -0.50504675       8.86394004
Si       4.29153978       2.27100874      -0.25811848
Si       2.44424568       0.96868154       0.01412712
Si      -2.07091225       1.76291191       8.24783776
Si      -1.70208144      -3.83355264       9.03230311
Si      -2.57865632       0.96254949       5.76785008
Si       1.20759811      -0.75845505       2.87249163
Si      -2.97002816       3.47666036       4.80372296
Si      -3.32143848      -2.88204575       6.41049953
Si      -0.89634938       7.54171505      -1.17116235
Si       1.15364914       1.18669114       3.73021967
Si       0.76348798       8.59428773      -2.00143776
Si      -0.89815375      -1.70662469       3.23221048
Si       2.50128861      -5.36058750       6.18780021
Si       0.26515851       2.76355192       2.62661121
Si      -3.26313733       2.70744648       6.76356009
Si      -1.19605305       4.16590908       3.27004090
Si      -1.34390525      -2.88340791       7.16987556
22
Lattice="5.513156754413271 -0.7217064081746829 -1.3824631799175848 -2.4959485196097653 11.60773705766539 -2.3283294494911186 -4.571573364505118 -5.779812484669419 10.851226609331858" Properties=species:S:1:pos:R:3 unique_starting_index=18 config_type=initial n_minim_iter=20 stress="-1.7164255907636007e-06 7.514876736718964e-06 1.7629308175068177e-05 7.514876736718964e-06 3.456618543165334e-05 -4.679661247340842e-06 1.7629308175068177e-05 -4.679661247340842e-06 -2.1438981841990517e-05" pbc="T T T"
Si       0.11530881      10.49137470      -1.30597013
Si      -1.53954476      -1.45641644       5.61065209
Si      -3.76074617      -3.88434019       9.54496992
Si       0.25217074      -3.13443824       8.55279648
Si      -5.56648687      -0.50541623       8.86383901
Si       4.29118677       2.27110566      -0.25829035
Si       2.44406737       0.96844125       0.01396329
Si      -2.07134365       1.76236644       8.24743274
Si      -1.70203206      -3.83429408       9.03237349
Si      -2.57860490       0.96275950       5.76761138
Si       1.20754442      -0.75856487       2.87247177
Si      -2.96978361       3.47671471       4.80355274
Si      -3.32166464      -2.88206774       6.41056965
Si      -0.89676145       7.54214497      -1.17132446
Si       1.15347913       1.18644241       3.72983737
Si       0.76284460       8.59480774      -2.00203689
Si      -0.89797791      -1.70696893       3.23240630
Si       2.50014581      -5.36091621       6.18773908
Si       0.26528987       2.76360909       2.62633376
Si      -3.26287926       2.70767989       6.76333640
Si      -1.19533741       4.16689226       3.27015843
Si      -1.34402328      -2.88449926       7.16967184
22
Lattice="5.5120305539114645 -0.7229338755934942 -1.3834476821823138 -2.4978935739888497 11.607876725556045 -2.3295507873004846 -4.570747196200582 -5.779660853315842 10.853314066356583" Properties=species:S:1:pos:R:3 unique_starting_index=18 config_type=initial n_minim_iter=21 stress="-4.2868031368718234e-05 2.398810501741839e-05 -4.628154621121847e-05 2.398810501741839e-05 -6.549969546897633e-05 2.3340096463015053e-05 -4.628154621121847e-05 2.3340096463015053e-05 -3.607169227481689e-05" pbc="T T T"
Si       0.11371314      10.49042528      -1.30709505
Si      -1.54001579      -1.45899379       5.61064583
Si      -3.76133092      -3.88536782       9.54718000
Si       0.25122684      -3.13542387       8.55337132
Si      -5.56750912      -0.50580752       8.86536682
Si       4.29000896       2.27081406      -0.25956570
Si       2.44365389       0.96727386       0.01336191
Si      -2.07333966       1.76050791       8.24775187
Si      -1.70329238      -3.83536941       9.03354228
Si      -2.57861987       0.96353743       5.76790148
Si       1.20704829      -0.75909335       2.87237030
Si      -2.96930773       3.47676583       4.80375112
Si      -3.32298531      -2.88074849       6.41164189
Si      -0.89845350       7.54170247      -1.17152917
Si       1.15206535       1.18596122       3.72911908
Si       0.76048484       8.59418647      -2.00382599
Si      -0.89754059      -1.70737344       3.23354886
Si       2.49629051      -5.36055364       6.18825031
Si       0.26530520       2.76358501       2.62595668
Si      -3.26284823       2.70840590       6.76378028
Si      -1.19305528       4.16917740       3.27115149
Si      -1.34516255      -2.88728672       7.16999034
