22
Lattice="5.880115502521656 -0.009610941202282269 -0.710730275139299 -0.6796445350280998 9.821352158491484 -2.9962052668756387 -3.0833057352299225 -7.3794935640056725 13.898149270972908" Properties=species:S:1:pos:R:3 unique_starting_index=51 config_type=initial n_minim_iter=1 energy=-3589.15870248802 free_energy=-3589.15870248802 pbc="T T T"
Si       3.05021787       7.97643895       0.41316490
Si      -2.02016365      -0.32117810       7.18056006
Si       0.88988030       8.32918482      -3.49187775
Si      -1.23945960       4.56127314       1.89815229
Si      -0.07348736      -0.81244054       6.49143019
Si       4.62286978      -0.06207022       4.19373454
Si      -0.14101268       1.17222262       1.33034255
Si       0.30127683       2.02828221      -0.55702212
Si       0.94426502      -2.65753128       6.25835793
Si       2.65791991      -0.86388371       9.26088166
Si      -1.35773481       1.22175729       8.48104735
Si       4.80948103       1.28013651       2.52115814
Si      -0.04908571       2.96259427       2.47082054
Si       1.60210795      -4.49505807      13.87273547
Si       1.76862108      -1.88550057      11.27768871
Si       4.21123850       6.45018207       2.02949315
Si       1.64059574       0.42461440       0.42773100
Si       2.89794974       2.61976896       8.68150243
Si       1.91019408      -0.71206572       7.24355214
Si      -0.09953122      -1.81387522       4.62044367
Si       3.61020892       1.24266128       0.77500908
Si       2.57571067      -1.60398004       1.36183536
22
Lattice="5.880112366419911 -0.00588582086443139 -0.7109976511562753 -0.6732080433639693 9.80993569967634 -2.995405985045567 -3.08888265322944 -7.372903782865887 13.895813093312878" Properties=species:S:1:pos:R:3 unique_starting_index=51 config_type=initial n_minim_iter=2 stress="-0.0037707443438804752 0.0007144586626541174 0.0003406288154026399 0.0007144586626541174 -0.00524002396942895 -0.002233542279549244 0.0003406288154026399 -0.002233542279549244 -0.0037727062243730503" pbc="T T T"
Si       3.05521354       7.96942092       0.41299078
Si      -2.02054050      -0.32174690       7.17946005
Si       0.89518353       8.32047411      -3.49107330
Si      -1.23667039       4.55564238       1.89818412
Si      -0.07474959      -0.81158221       6.49018947
Si       4.62255082      -0.05883250       4.19276916
Si      -0.14028123       1.17119954       1.33013617
Si       0.30249942       2.02626955      -0.55673815
Si       0.94211486      -2.65381478       6.25727194
Si       2.65685790      -0.86090323       9.25915910
Si      -1.35746620       1.21979480       8.47956975
Si       4.80999611       1.28184738       2.52089426
Si      -0.04740834       2.95918142       2.47027933
Si       1.59867520      -4.48882199      13.87005939
Si       1.76675932      -1.88203911      11.27563190
Si       4.21518986       6.44550385       2.02898707
Si       1.64088774       0.42515401       0.42734627
Si       2.89905026       2.61895555       8.68014208
Si       1.90926566      -0.70993852       7.24225137
Si      -0.10089704      -1.81172887       4.61940795
Si       3.61043951       1.24328340       0.77441671
Si       2.57466892      -1.60053202       1.36150969
22
Lattice="5.88522427378116 -0.0029314429044151125 -0.7123771142082489 -0.6677559519078831 9.807127871880184 -2.9920136257645518 -3.0978253581088113 -7.366568293106207 13.90156821922272" Properties=species:S:1:pos:R:3 unique_starting_index=51 config_type=initial n_minim_iter=3 stress="0.006088598976216102 0.002744753926613974 3.775921872838032e-05 0.002744753926613974 -0.0004557824846783412 -0.0003941071194949026 3.775921872838032e-05 -0.0003941071194949026 0.006241530123507394" pbc="T T T"
Si       3.06222444       7.97046030       0.41683230
Si      -2.02301089      -0.31859916       7.18436897
Si       0.90074362       8.31848758      -3.48895815
Si      -1.23537992       4.55585206       1.90239547
Si      -0.07698875      -0.80821853       6.49392885
Si       4.62576304      -0.05351024       4.19490101
Si      -0.13973759       1.17222913       1.33172207
Si       0.30380403       2.02620279      -0.55574659
Si       0.94049227      -2.64997110       6.26011008
Si       2.65746879      -0.85414614       9.26455138
Si      -1.35912132       1.22362852       8.48575123
Si       4.81419058       1.28588232       2.52353161
Si      -0.04620122       2.95997915       2.47316424
Si       1.59598384      -4.48016203      13.87631071
Si       1.76568644      -1.87491041      11.28189545
Si       4.22216971       6.44805876       2.03313354
Si       1.64269674       0.42626630       0.42714943
Si       2.90174915       2.62507405       8.68736132
Si       1.90941669      -0.70503606       7.24653777
Si      -0.10246748      -1.80906387       4.62089746
Si       3.61298006       1.24491035       0.77445970
Si       2.57594985      -1.59821396       1.36143374
22
Lattice="5.88102496866926 -0.005358235938091925 -0.7132781322051125 -0.6690248391977813 9.80884188480435 -2.9768137072614422 -3.0974856126406234 -7.352992958149886 13.87839980749161" Properties=species:S:1:pos:R:3 unique_starting_index=51 config_type=initial n_minim_iter=4 stress="0.0006120498578983963 0.0010022049696533334 -0.0019481255365118156 0.0010022049696533334 0.0038001009473525717 0.003905682450406138 -0.0019481255365118156 0.003905682450406138 -0.0023857418020424358" pbc="T T T"
Si       3.05760687       7.97367345       0.42439313
Si      -2.02222504      -0.30855295       7.17681048
Si       0.89783795       8.31853094      -3.47551261
Si      -1.23606680       4.56134069       1.90681660
Si      -0.08017637      -0.80114435       6.48553332
Si       4.62082067      -0.04858798       4.18907383
Si      -0.13987028       1.17544567       1.33215716
Si       0.30273547       2.02713866      -0.55199800
Si       0.93878409      -2.64521971       6.25037391
Si       2.65379461      -0.84366229       9.25288923
Si      -1.36076806       1.23500262       8.47778016
Si       4.80879690       1.28845484       2.52284195
Si      -0.04780718       2.96382697       2.47305267
Si       1.59335196      -4.46664249      13.85459583
Si       1.76225173      -1.86315498      11.26687678
Si       4.21701663       6.45193584       2.03747381
Si       1.64175524       0.42662238       0.42556610
Si       2.89662570       2.63608438       8.68139524
Si       1.90609020      -0.69760973       7.23737695
Si      -0.10253291      -1.80420975       4.61222265
Si       3.60733598       1.24384091       0.77270904
Si       2.57455263      -1.59812088       1.35791726
22
Lattice="5.8781986262198975 -0.009495734526161204 -0.7108597718354078 -0.67752125223579 9.808742725577208 -2.9824390627320447 -3.0842511045691063 -7.355156632881016 13.8854114344192" Properties=species:S:1:pos:R:3 unique_starting_index=51 config_type=initial n_minim_iter=5 stress="-0.0008773162001986279 -0.0015908687600211361 0.0008560765913374009 -0.0015908687600211361 6.488898876926198e-05 0.00016267766993568008 0.0008560765913374009 0.00016267766993568008 0.000980073619073045" pbc="T T T"
Si       3.05045165       7.96925620       0.42205665
Si      -2.01731081      -0.30898910       7.17905953
Si       0.88875608       8.31791791      -3.48000145
Si      -1.23800387       4.56097170       1.90557658
Si      -0.07700887      -0.80446071       6.48803904
Si       4.62028768      -0.05306254       4.19275611
Si      -0.13977918       1.17518803       1.33296488
Si       0.30067517       2.02722879      -0.55271930
Si       0.94322998      -2.64884657       6.25487595
Si       2.65814230      -0.84896623       9.25826213
Si      -1.35719585       1.23237006       8.47940260
Si       4.80622700       1.28379057       2.52633600
Si      -0.04880714       2.96172970       2.47222397
Si       1.60290736      -4.47312265      13.86184479
Si       1.76856016      -1.86914419      11.27286012
Si       4.21153654       6.44602710       2.03749947
Si       1.64113871       0.42512970       0.42555482
Si       2.89740503       2.62988027       8.68575797
Si       1.90902711      -0.70225949       7.24131344
Si      -0.09854105      -1.80528828       4.61363567
Si       3.60387112       1.23946018       0.77316110
Si       2.57571528      -1.60032654       1.36083794
22
Lattice="5.8791240394835 -0.008592994322336211 -0.7124110000462877 -0.6751487339041012 9.815413876917706 -2.981029821707376 -3.0904956047390306 -7.361747342911286 13.877559312808492" Properties=species:S:1:pos:R:3 unique_starting_index=51 config_type=initial n_minim_iter=6 stress="0.0015386323128453163 -0.0010278707187496143 -0.0031291317090992045 -0.0010278707187496143 0.0005235876150568721 -0.002981957951809036 -0.0031291317090992045 -0.002981957951809036 -0.002963559505718824" pbc="T T T"
Si       3.05185279       7.97425932       0.41908440
Si      -2.02010090      -0.30818440       7.17552101
Si       0.89037921       8.32469698      -3.47834697
Si      -1.23783531       4.56397184       1.90515078
Si      -0.07871072      -0.80810262       6.48259415
Si       4.61840463      -0.05193789       4.18828801
Si      -0.13966107       1.17570748       1.33397158
Si       0.30147571       2.02936593      -0.55297550
Si       0.94048017      -2.65173675       6.25139040
Si       2.65596274      -0.84962575       9.25139005
Si      -1.36001283       1.23281773       8.47347934
Si       4.80419149       1.28580144       2.52289787
Si      -0.04891820       2.96304093       2.46978238
Si       1.59779984      -4.47753898      13.85117907
Si       1.76552675      -1.87161145      11.26481725
Si       4.21243958       6.44975077       2.03426604
Si       1.64086006       0.42564590       0.42367249
Si       2.89493016       2.63172219       8.67984161
Si       1.90620919      -0.70364740       7.23564962
Si      -0.09952686      -1.80566548       4.60927095
Si       3.60340065       1.23921017       0.77029998
Si       2.57588271      -1.60104875       1.35969773
22
Lattice="5.871206867643695 -0.00593253355116493 -0.7057324745715721 -0.6713333014574496 9.81704742692564 -2.965666001706741 -3.075886404670429 -7.346502507158707 13.860900270705768" Properties=species:S:1:pos:R:3 unique_starting_index=51 config_type=initial n_minim_iter=7 stress="-0.002477283303048134 0.0022061316405521452 0.004349774663618022 0.0022061316405521452 0.0029591443104316916 -0.0002532878383557329 0.004349774663618022 -0.0002532878383557329 -0.00041046647962485774" pbc="T T T"
Si       3.05396466       7.98130175       0.43365409
Si      -2.00963521      -0.29466320       7.17311613
Si       0.88919697       8.32715851      -3.46319230
Si      -1.23056077       4.56986129       1.91254923
Si      -0.07096889      -0.80291539       6.47885864
Si       4.61573500      -0.04095203       4.19311117
Si      -0.13627964       1.17801246       1.33894157
Si       0.30252318       2.03121695      -0.54999125
Si       0.94407997      -2.64417503       6.24923447
Si       2.66426426      -0.83290400       9.25287658
Si      -1.34779827       1.24790974       8.47275840
Si       4.79822232       1.29538412       2.53005847
Si      -0.04335846       2.96861468       2.47378237
Si       1.60820451      -4.45852501      13.84284761
Si       1.77674101      -1.85445658      11.26311137
Si       4.21410601       6.45862678       2.04967644
Si       1.63865659       0.42793865       0.42502567
Si       2.90227312       2.65042412       8.68851513
Si       1.91094876      -0.69222680       7.23581740
Si      -0.09374488      -1.79710169       4.60314168
Si       3.60007178       1.24135693       0.77432668
Si       2.57438699      -1.59809265       1.36095377
22
Lattice="5.8691960441439255 -0.011284221101013917 -0.7091378693915288 -0.6763809005342294 9.802713204940217 -2.949558342930055 -3.076684511189595 -7.312859846994444 13.856144123136401" Properties=species:S:1:pos:R:3 unique_starting_index=51 config_type=initial n_minim_iter=8 stress="-0.002209158211511927 -0.0023434897885908105 -0.0005501906309207112 -0.0023434897885908105 -0.0009663886463056124 0.0031672441789059656 -0.0005501906309207112 0.0031672441789059656 0.0029400214682583524" pbc="T T T"
Si       3.04723955       7.97127146       0.44480444
Si      -2.01180976      -0.27739807       7.17774808
Si       0.88352045       8.31364518      -3.44972733
Si      -1.23361612       4.56972879       1.92332581
Si      -0.07390029      -0.79406346       6.47913228
Si       4.61024727      -0.03650931       4.19290508
Si      -0.13683029       1.17889727       1.34403408
Si       0.30230511       2.02853491      -0.54757701
Si       0.94201254      -2.63292565       6.24815253
Si       2.66055921      -0.81694827       9.25503079
Si      -1.35226122       1.26378250       8.47909299
Si       4.79027308       1.29674349       2.53077005
Si      -0.04605414       2.96965056       2.47956724
Si       1.60252328      -4.43216922      13.84002513
Si       1.77314765      -1.83494942      11.26455660
Si       4.20703330       6.45164903       2.06008850
Si       1.63681454       0.42712756       0.42468401
Si       2.89375886       2.66197658       8.69670137
Si       1.90646246      -0.68109646       7.23695975
Si      -0.09344587      -1.78503982       4.60006887
Si       3.59756556       1.23746990       0.77332040
Si       2.57449794      -1.59569909       1.35790398
22
Lattice="5.872015689113386 -0.011909471444553196 -0.7047723791399684 -0.6785772075896005 9.801471413177449 -2.93797242785 -3.069780024778584 -7.301276979173071 13.833484917836758" Properties=species:S:1:pos:R:3 unique_starting_index=51 config_type=initial n_minim_iter=9 stress="0.002078821884837414 2.1470833134341816e-05 0.0010408602060496598 2.1470833134341816e-05 -0.001834388546480229 0.00047062334015847364 0.0010408602060496598 0.00047062334015847364 -0.0003883725371216998" pbc="T T T"
Si       3.05010591       7.97179965       0.45126064
Si      -2.00582103      -0.26587855       7.16959471
Si       0.88048418       8.31440294      -3.43591619
Si      -1.23190402       4.57192114       1.92676553
Si      -0.07313299      -0.79291374       6.46986544
Si       4.61255237      -0.03371603       4.19237139
Si      -0.13387808       1.17970523       1.34690321
Si       0.30411562       2.02849862      -0.54566812
Si       0.94678839      -2.63159108       6.24143369
Si       2.67065634      -0.80728397       9.24772299
Si      -1.34759795       1.27422478       8.47077079
Si       4.78719580       1.30267831       2.53138588
Si      -0.04348470       2.97148388       2.47821927
Si       1.61067318      -4.42096915      13.82215560
Si       1.78424161      -1.82647214      11.25331843
Si       4.21055064       6.45235167       2.06720249
Si       1.63667937       0.42753803       0.42636829
Si       2.89805273       2.67238193       8.69242996
Si       1.91182879      -0.67614815       7.23055268
Si      -0.08816297      -1.77683125       4.59065399
Si       3.60077307       1.23517316       0.77341904
Si       2.57768123      -1.59409208       1.35659837
22
Lattice="5.8659352089427 -0.010204366053946616 -0.7069201901392573 -0.6738079101653351 9.80377628156197 -2.936976860986452 -3.0730299012359845 -7.301357713024842 13.839924153502498" Properties=species:S:1:pos:R:3 unique_starting_index=51 config_type=initial n_minim_iter=10 stress="-0.0029188587073050686 0.0022857608169567526 -0.0019957093659423 0.0022857608169567526 0.0016594714592671987 -0.002069048259672738 -0.0019957093659423 -0.002069048259672738 0.004300121401528914" pbc="T T T"
Si       3.04989995       7.97518899       0.45145420
Si      -2.00500381      -0.26264804       7.17410030
Si       0.88276885       8.31786861      -3.43499511
Si      -1.22909061       4.57310348       1.92996709
Si      -0.07582276      -0.79378822       6.47314249
Si       4.60469568      -0.03241133       4.19344311
Si      -0.13287302       1.18015509       1.34891386
Si       0.30539401       2.02917873      -0.54551413
Si       0.94299918      -2.63251569       6.24391573
Si       2.66612815      -0.80391146       9.25209561
Si      -1.34826075       1.27766966       8.47614504
Si       4.77813619       1.30713313       2.53145020
Si      -0.04280561       2.97275795       2.47926427
Si       1.60353330      -4.41821991      13.82744865
Si       1.77986376      -1.82465242      11.25866142
Si       4.20776278       6.45611416       2.06845183
Si       1.63457532       0.42828716       0.42693381
Si       2.89155723       2.67730134       8.69631822
Si       1.90672304      -0.67481131       7.23341958
Si      -0.08909547      -1.77512719       4.59191035
Si       3.59697132       1.23463570       0.77181944
Si       2.57438507      -1.59313443       1.35597532
22
Lattice="5.86891973699075 -0.014648943971299183 -0.7007806519118145 -0.6817203697513177 9.78898797135895 -2.9120849240633664 -3.058598494462794 -7.262031412519597 13.805530846568505" Properties=species:S:1:pos:R:3 unique_starting_index=51 config_type=initial n_minim_iter=11 stress="-0.000490188626858867 -0.0009824623402278259 -7.588217547886651e-05 -0.0009824623402278259 -0.002330551683041895 -0.00013359157676336096 -7.588217547886651e-05 -0.00013359157676336096 -0.000519616788597952" pbc="T T T"
Si       3.05098299       7.96697724       0.46819897
Si      -1.99750717      -0.23639322       7.16504403
Si       0.87470538       8.30741832      -3.40882675
Si      -1.22800829       4.57254432       1.93971739
Si      -0.06969322      -0.78687880       6.46517833
Si       4.60458606      -0.03006084       4.19360090
Si      -0.12980904       1.18219207       1.35351154
Si       0.30670282       2.02603008      -0.53873826
Si       0.95074893      -2.62321504       6.23177308
Si       2.68208029      -0.78125065       9.24468796
Si      -1.34214612       1.30225403       8.47075972
Si       4.76953891       1.31692829       2.53616416
Si      -0.04030640       2.97483413       2.47939826
Si       1.62099096      -4.38149522      13.80241950
Si       1.79820103      -1.80159246      11.24570430
Si       4.21058938       6.45420611       2.08295864
Si       1.63480688       0.42750533       0.43141915
Si       2.89361854       2.69755490       8.69373719
Si       1.91234332      -0.66158740       7.22493205
Si      -0.08115196      -1.76057642       4.58207487
Si       3.59851861       1.22443789       0.77188098
Si       2.57959087      -1.58856142       1.35266665
22
Lattice="5.869023266844531 -0.011873107215806368 -0.6979031082303007 -0.6764950492163446 9.78976754697748 -2.8949932073092217 -3.058158061860955 -7.2472267703953 13.781975440929072" Properties=species:S:1:pos:R:3 unique_starting_index=51 config_type=initial n_minim_iter=12 stress="0.0033947437584071352 4.709135752097098e-05 0.0002740030824183251 4.709135752097098e-05 -0.002171326275646508 -0.0010246537597896465 0.0002740030824183251 -0.0010246537597896465 0.002326870369129524" pbc="T T T"
Si       3.06059136       7.97398145       0.47726497
Si      -1.99382666      -0.21791505       7.15922401
Si       0.87606909       8.31100251      -3.39171386
Si      -1.22248143       4.57695256       1.94733637
Si      -0.06991092      -0.78425104       6.46275196
Si       4.59915857      -0.02936844       4.19396077
Si      -0.13348910       1.18534992       1.36130622
Si       0.31035990       2.02847283      -0.53338386
Si       0.95368153      -2.62214148       6.22042120
Si       2.69184290      -0.76319202       9.23871210
Si      -1.33820951       1.32238925       8.46683279
Si       4.75863118       1.33346960       2.53870390
Si      -0.03420457       2.98106615       2.47856787
Si       1.62573020      -4.36282353      13.78525950
Si       1.80864594      -1.78876104      11.23697613
Si       4.21532496       6.46252070       2.08937170
Si       1.63361984       0.42774158       0.43062030
Si       2.89261134       2.71917632       8.69173163
Si       1.91360692      -0.65254520       7.21705550
Si      -0.07624145      -1.75351540       4.57548212
Si       3.60261344       1.22111714       0.76470481
Si       2.58213365      -1.58385957       1.35092124
22
Lattice="5.8679337156678315 -0.009972829302092341 -0.6953103921789219 -0.6731413288647492 9.798251518182015 -2.8837326380634436 -3.0575038697659065 -7.247910061060992 13.751700955566639" Properties=species:S:1:pos:R:3 unique_starting_index=51 config_type=initial n_minim_iter=13 stress="0.0024047539169263815 0.000711731517427683 -0.00024703408994401847 0.000711731517427683 -0.000991015550526207 -0.0012519019071177788 -0.00024703408994401847 -0.0012519019071177788 0.000752234305452951" pbc="T T T"
Si       3.06827623       7.98364053       0.47880486
Si      -1.99266565      -0.20626893       7.14755652
Si       0.87545584       8.31886507      -3.37794734
Si      -1.21895301       4.58286083       1.94829974
Si      -0.07083388      -0.78799027       6.45327352
Si       4.59370486      -0.03245247       4.18923528
Si      -0.13331624       1.18519560       1.36186620
Si       0.31316087       2.03204726      -0.52762947
Si       0.95535726      -2.62622915       6.20461620
Si       2.69883199      -0.75530722       9.22298059
Si      -1.33533215       1.33477858       8.45051673
Si       4.74766311       1.34533902       2.54010349
Si      -0.02773903       2.98795749       2.47577439
Si       1.62622990      -4.35896973      13.75749523
Si       1.81660221      -1.78747717      11.21832459
Si       4.21685610       6.47034371       2.08708313
Si       1.62911555       0.43030667       0.42922648
Si       2.88998524       2.73255603       8.67859981
Si       1.91554936      -0.65013660       7.20252017
Si      -0.07297475      -1.75217132       4.56687021
Si       3.60390139       1.21901044       0.75425212
Si       2.58390747      -1.58188654       1.34838017
22
Lattice="5.868536533684631 -0.007242688689401227 -0.6952325716808956 -0.66712981389581 9.802509621888749 -2.8708773059422854 -3.06581648770595 -7.24738189817831 13.712361048001497" Properties=species:S:1:pos:R:3 unique_starting_index=51 config_type=initial n_minim_iter=14 stress="0.0021365520469109394 0.0006072542030275687 -0.0006049403359273377 0.0006072542030275687 0.0002538428591958848 -0.0017353940282901126 -0.0006049403359273377 -0.0017353940282901126 0.0011286442421671733" pbc="T T T"
Si       3.07736859       7.98811072       0.47593405
Si      -1.99491854      -0.19668952       7.12951363
Si       0.87836980       8.32417223      -3.36503333
Si      -1.21649755       4.58450899       1.94561076
Si      -0.07672329      -0.79367061       6.44277392
Si       4.58906656      -0.03257527       4.17913154
Si      -0.13272693       1.18613748       1.36687458
Si       0.31875786       2.03606497      -0.52215029
Si       0.95079648      -2.62629920       6.18344617
Si       2.70051068      -0.75110419       9.19649530
Si      -1.33743293       1.34673950       8.42691000
Si       4.73552522       1.35465528       2.53618529
Si      -0.02002723       2.98996858       2.47050243
Si       1.61498478      -4.35228662      13.72039916
Si       1.81982772      -1.78774641      11.19036308
Si       4.21917315       6.47649423       2.08071644
Si       1.62690577       0.43573082       0.42775851
Si       2.88256354       2.74232997       8.65368641
Si       1.91553007      -0.64756177       7.18096638
Si      -0.07194486      -1.75325097       4.55053067
Si       3.60264452       1.21787513       0.74110181
Si       2.58675588      -1.57853759       1.34496763
22
Lattice="5.869667731086471 -0.005828323272663159 -0.6949085378836021 -0.6642704607743415 9.805870082707559 -2.8643632560262615 -3.070868631066783 -7.25062999501334 13.683863160554116" Properties=species:S:1:pos:R:3 unique_starting_index=51 config_type=initial n_minim_iter=15 stress="0.0031379614866180803 0.0025394587286691203 -0.001755427106076835 0.0025394587286691203 0.0043878968215481165 -0.001592335245255251 -0.001755427106076835 -0.001592335245255251 0.0010817983295633314" pbc="T T T"
Si       3.08265778       7.98897344       0.47035370
Si      -1.99797745      -0.19282975       7.11426591
Si       0.87915996       8.33028802      -3.35712449
Si      -1.21570077       4.58429456       1.94090230
Si      -0.07968855      -0.79917600       6.43383065
Si       4.58842078      -0.03308985       4.17150218
Si      -0.13399104       1.18769436       1.36739326
Si       0.32135103       2.03985027      -0.51581567
Si       0.95000710      -2.63072895       6.17017991
Si       2.70221745      -0.75280575       9.17586848
Si      -1.33867304       1.35380467       8.40685076
Si       4.72608645       1.35843691       2.53169515
Si      -0.01353546       2.99158529       2.46784851
Si       1.60971371      -4.35458788      13.69258400
Si       1.82326360      -1.79230078      11.16924933
Si       4.22086664       6.47991520       2.07400666
Si       1.62620317       0.43814613       0.42595236
Si       2.87676983       2.74487442       8.63169120
Si       1.91468821      -0.64803562       7.16336538
Si      -0.07286551      -1.75355472       4.53712611
Si       3.60202714       1.21700483       0.73353455
Si       2.59000238      -1.57647902       1.34339390
22
Lattice="5.870932178149643 -0.00874086578761266 -0.6961872853627974 -0.6672109721235715 9.79429938679471 -2.8524688010918373 -3.075088148669459 -7.235110722866834 13.64899396324495" Properties=species:S:1:pos:R:3 unique_starting_index=51 config_type=initial n_minim_iter=16 stress="-0.001581890081806713 -0.0003097345354117099 -0.00038089010324749345 -0.0003097345354117099 0.0020195358153095515 0.0013271162496685293 -0.00038089010324749345 0.0013271162496685293 0.00046845766760208205" pbc="T T T"
Si       3.08265016       7.97398440       0.46440910
Si      -2.00341150      -0.18492858       7.09400885
Si       0.87426749       8.32141149      -3.34711453
Si      -1.21908922       4.57903858       1.93678743
Si      -0.08627754      -0.80285594       6.42188653
Si       4.58987697      -0.03344522       4.16336556
Si      -0.13815575       1.18371671       1.36984162
Si       0.32531223       2.04237274      -0.50932915
Si       0.95065175      -2.63166509       6.15550036
Si       2.70371595      -0.75236412       9.15113849
Si      -1.34339126       1.36850196       8.38458432
Si       4.71544567       1.36330456       2.52479177
Si      -0.01144293       2.98791140       2.47217381
Si       1.60584668      -4.34398786      13.66093856
Si       1.82738844      -1.79307780      11.14538881
Si       4.21839675       6.47299894       2.06690794
Si       1.62225069       0.44136911       0.42259682
Si       2.86374109       2.74599257       8.60594495
Si       1.91126138      -0.64531807       7.14104868
Si      -0.07613714      -1.74780605       4.52141691
Si       3.59724083       1.21033014       0.72597826
Si       2.59593701      -1.57195936       1.34077362
22
Lattice="5.876570098511093 -0.011020638123111916 -0.6966907790985131 -0.6708690523464322 9.78846680461458 -2.8478822784426576 -3.0796261012650032 -7.2316275347841374 13.622036248357903" Properties=species:S:1:pos:R:3 unique_starting_index=51 config_type=initial n_minim_iter=17 stress="-0.0015762611113895244 -0.0012071679877446863 -6.816049574440287e-05 -0.0012071679877446863 0.0005676018767817318 0.0026235727963226643 -6.816049574440287e-05 0.0026235727963226643 0.00013849555304959989" pbc="T T T"
Si       3.08403402       7.96310329       0.45487244
Si      -2.00712364      -0.18244090       7.07512985
Si       0.87248753       8.31742526      -3.34358690
Si      -1.22292173       4.57511339       1.93068996
Si      -0.08987598      -0.81113974       6.41476663
Si       4.59306916      -0.03292819       4.15306697
Si      -0.14246064       1.17898892       1.36945047
Si       0.32963504       2.04389828      -0.50549292
Si       0.95126888      -2.63636102       6.14338755
Si       2.70860839      -0.75787713       9.13041682
Si      -1.34951588       1.37568803       8.36498043
Si       4.71032084       1.36476499       2.52225406
Si      -0.01097236       2.98503781       2.47313214
Si       1.60677696      -4.34605626      13.63794326
Si       1.83366027      -1.80113282      11.12555996
Si       4.21977306       6.46620755       2.05855864
Si       1.61787243       0.44347921       0.41916160
Si       2.85463519       2.74333600       8.58163975
Si       1.90916270      -0.64728743       7.12106406
Si      -0.07597523      -1.74602053       4.50836002
Si       3.59810523       1.20624723       0.71922402
Si       2.60180329      -1.56893660       1.33666529
22
Lattice="5.877947125776189 -0.013316208722569974 -0.6951252638236389 -0.6753179431261437 9.788494950095908 -2.8450516134882875 -3.075594749100349 -7.230584791997116 13.60690065735658" Properties=species:S:1:pos:R:3 unique_starting_index=51 config_type=initial n_minim_iter=18 stress="-0.002511925003709315 -0.0018254454711038707 2.129448794332996e-05 -0.0018254454711038707 0.0007403148152150942 0.002694052180686376 2.129448794332996e-05 0.002694052180686376 -0.00021717932999723452" pbc="T T T"
Si       3.08291734       7.96014519       0.45085953
Si      -2.00747966      -0.17858219       7.06485221
Si       0.86894593       8.31743753      -3.34016550
Si      -1.22444367       4.57470606       1.92770049
Si      -0.09106890      -0.81737027       6.40998810
Si       4.59597274      -0.03444884       4.15042377
Si      -0.14691299       1.17724888       1.37189184
Si       0.33178019       2.04457723      -0.50086622
Si       0.95213584      -2.63919514       6.13549666
Si       2.71509488      -0.76208270       9.12086681
Si      -1.35093674       1.38155939       8.35150245
Si       4.70650466       1.36549269       2.52341718
Si      -0.00991605       2.98415681       2.47555101
Si       1.61300112      -4.34818694      13.62553875
Si       1.84225375      -1.80683467      11.11713166
Si       4.21954431       6.46522595       2.05677563
Si       1.61568368       0.44559711       0.41771224
Si       2.84881470       2.74365518       8.56846868
Si       1.91183536      -0.64774245       7.10998465
Si      -0.07196540      -1.74515119       4.50347470
Si       3.59720740       1.20344088       0.71706177
Si       2.60484107      -1.56712300       1.33326578
22
Lattice="5.88355812444998 -0.01691842191188429 -0.6945196769659643 -0.6817682392768365 9.782446918453727 -2.840638979899875 -3.0756722419156644 -7.225589602124013 13.581289962248025" Properties=species:S:1:pos:R:3 unique_starting_index=51 config_type=initial n_minim_iter=19 stress="0.004485782413863921 -0.0028314379830635932 0.0015558651941709753 -0.0028314379830635932 0.005440642410010368 -0.00017350153617423894 0.0015558651941709753 -0.00017350153617423894 0.0011443461279880742" pbc="T T T"
Si       3.08417698       7.95153440       0.44101535
Si      -2.01397888      -0.16951004       7.04639440
Si       0.86384177       8.31432469      -3.34140276
Si      -1.22757720       4.57193089       1.92351268
Si      -0.09546767      -0.82765054       6.40509210
Si       4.60349930      -0.04157530       4.14668216
Si      -0.15273930       1.17223394       1.37781719
Si       0.33899145       2.04162162      -0.48940192
Si       0.95545035      -2.64452668       6.12002505
Si       2.72730464      -0.77144783       9.10229616
Si      -1.36046395       1.39197946       8.32610207
Si       4.69680725       1.36632243       2.52415853
Si      -0.00812761       2.97950917       2.47997761
Si       1.61924983      -4.34901229      13.60301917
Si       1.85742890      -1.81926366      11.10307277
Si       4.21803093       6.45851370       2.05026937
Si       1.60764428       0.45099869       0.41152197
Si       2.83391595       2.74305140       8.54368376
Si       1.91336790      -0.64833420       7.08635598
Si      -0.06513972      -1.74377948       4.49247564
Si       3.59603000       1.19713592       0.71374928
Si       2.61325905      -1.56095543       1.32707557
22
Lattice="5.885290656292873 -0.024200610473059547 -0.6936997107779582 -0.6929359345493581 9.759130252545287 -2.8269741783581734 -3.070718852006144 -7.198160627917886 13.537771253008888" Properties=species:S:1:pos:R:3 unique_starting_index=51 config_type=initial n_minim_iter=20 stress="0.007438985553659333 -0.0019018983885998619 0.0008683678482834239 -0.0019018983885998619 -0.0008317111756979546 -0.002690046585579676 0.0008683678482834239 -0.002690046585579676 -0.002193794586754388" pbc="T T T"
Si       3.08651843       7.93084756       0.43053347
Si      -2.02183345      -0.14720531       7.01284406
Si       0.85180605       8.30769758      -3.33766700
Si      -1.23058937       4.56455213       1.92186774
Si      -0.10440527      -0.84380542       6.40245005
Si       4.60814452      -0.05222718       4.14142306
Si      -0.16355024       1.15945770       1.39628602
Si       0.35520801       2.03144128      -0.46268240
Si       0.96519274      -2.64785964       6.09409296
Si       2.74833841      -0.78370519       9.07179842
Si      -1.37729329       1.42007190       8.28121258
Si       4.67243734       1.36855598       2.52968690
Si      -0.00624162       2.96898978       2.49296610
Si       1.62837059      -4.33449725      13.56786629
Si       1.88621857      -1.83380798      11.08507822
Si       4.20658977       6.44297109       2.04377827
Si       1.58853311       0.46136153       0.39577790
Si       2.80305232       2.73895110       8.50824704
Si       1.91453953      -0.64252129       7.04744433
Si      -0.05496588      -1.73657905       4.47525476
Si       3.58530610       1.18558628       0.70989112
Si       2.62258724      -1.54446590       1.30804277
22
Lattice="5.885906628158869 -0.02723020040516803 -0.6947093433945531 -0.6968659333483778 9.751416571020632 -2.8211864217527154 -3.071689152716152 -7.188255860880427 13.520568862998736" Properties=species:S:1:pos:R:3 unique_starting_index=51 config_type=initial n_minim_iter=21 stress="0.007072109562276938 -6.12006990560991e-05 -0.0005076505028093315 -6.12006990560991e-05 -0.0018468459543443505 -0.0025438375692317613 -0.0005076505028093315 -0.0025438375692317613 -0.002439911753751527" pbc="T T T"
Si       3.08897353       7.92441303       0.42468720
Si      -2.02656798      -0.13720685       6.99688962
Si       0.84646185       8.30527854      -3.33919789
Si      -1.23169942       4.56291131       1.92213362
Si      -0.10978951      -0.85427169       6.40156428
Si       4.60867475      -0.05736303       4.13920044
Si      -0.16961545       1.15429805       1.40639768
Si       0.36444127       2.02624840      -0.44813856
Si       0.96885542      -2.65052977       6.08327685
Si       2.75770427      -0.78894781       9.05790586
Si      -1.38761118       1.43519062       8.26166808
Si       4.65877746       1.36989520       2.53205477
Si      -0.00587812       2.96504493       2.49880111
Si       1.62971851      -4.33078256      13.55456845
Si       1.89826206      -1.84230697      11.07867571
Si       4.20063477       6.43799607       2.03995559
Si       1.57970025       0.46927276       0.38793092
Si       2.78531203       2.73737358       8.49113977
Si       1.91278060      -0.64022367       7.03065218
Si      -0.05178156      -1.73300487       4.46861947
Si       3.57905845       1.18122212       0.70778238
Si       2.62673649      -1.53624846       1.29814922
