8
Lattice="6.429018720080123 -1.0827677183506314e-78 2.5308812436797468e-64 4.620083009724187e-79 5.266791224722332 -7.218123895354875e-16 -7.08839130775662e-63 -8.871164959135982e-16 6.4290187200801245" Properties=species:S:1:pos:R:3 unique_starting_index=2 config_type=initial n_minim_iter=13 energy=-1297.6069968815182 free_energy=-1297.6069968815182 pbc="T T T"
Si       3.65442582       1.75294761       4.31448647
Si       2.77525360       1.75294761       2.11400128
Si       4.31508230       3.51383378       2.77465776
Si       2.11459712       3.51383378       3.65382998
Si       5.98976296       3.51383378       1.09997711
Si       0.43991646       3.51383378       5.32851064
Si       5.32910648       1.75294761       5.98916712
Si       1.10057294       1.75294761       0.43932062
