22
Lattice="5.4686794546829836 -0.25200919583897996 0.06406684732136378 2.5507113249287245 6.065256365616117 0.2773991467532178 1.1493583126404343 0.8849361500928964 16.471954808693685" Properties=species:S:1:pos:R:3 unique_starting_index=40 config_type=initial n_minim_iter=1 energy=-3593.9915873758678 free_energy=-3593.9915873758678 pbc="T T T"
Si       5.85431986       2.88192559      12.84837013
Si       1.32306919       3.67955858       4.97201371
Si       5.28253535       0.49721828       7.35791741
Si       4.18444233       3.70728205      13.85437519
Si       3.76498823       2.68252248      15.67523627
Si       6.40022897       5.35781310       6.61868470
Si       5.77645658       2.41288020       1.92007638
Si       5.06348855       4.47145005       9.80142402
Si       4.14445312       2.29198857       0.56014862
Si       4.52914919       4.65296500      15.71821741
Si       5.23495828       2.61988141      10.80331668
Si       4.58829439       4.29109889      11.90069491
Si       2.16071162       2.97427345       0.86453944
Si       0.96738826      -0.49145286       8.55679603
Si       1.76406777       2.77813476      16.38748348
Si       6.87368387       5.16937060       8.89964911
Si       3.38919757       2.79223706       4.46091557
Si       4.09727808       5.85641777       6.81078809
Si       5.18373892       3.53508910       3.59952444
Si       5.61378864       1.04056171       9.37857108
Si       5.74978573       2.92372215      14.98026060
Si       5.33698975       1.30336322       5.40496389
22
Lattice="5.477924654068957 -0.2531229568102215 0.05961252051509944 2.554022316573379 6.074360806132644 0.27394358808530406 1.1374897280692635 0.8821597173850105 16.479365312108847" Properties=species:S:1:pos:R:3 unique_starting_index=40 config_type=initial n_minim_iter=2 stress="0.016338575144835055 -0.002287814600973588 -0.0017846255288689137 -0.002287814600973588 -0.0015950692261226735 0.0015758667800369248 -0.0017846255288689137 0.0015758667800369248 0.010066613930372658" pbc="T T T"
Si       5.85310069       2.88233021      12.84893280
Si       1.32036949       3.68396677       4.97223817
Si       5.28492365       0.49512508       7.35704407
Si       4.17920834       3.70900098      13.85735984
Si       3.75751138       2.68220665      15.67903270
Si       6.40529730       5.36417341       6.61574235
Si       5.78418919       2.41529578       1.91582055
Si       5.06333002       4.47573382       9.80142490
Si       4.15094894       2.29483381       0.55671543
Si       4.52309814       4.65623061      15.72172424
Si       5.23469989       2.62017839      10.80427000
Si       4.58561627       4.29446639      11.90175664
Si       2.16363126       2.97879649       0.86257417
Si       0.96224892      -0.49469716       8.56083972
Si       1.75279320       2.77817305      16.39339738
Si       6.87714661       5.17447470       8.89725943
Si       3.39086513       2.79508472       4.45977470
Si       4.09784597       5.86354047       6.80916297
Si       5.18940870       3.53911559       3.59692744
Si       5.61527420       1.03937348       9.37890130
Si       5.74710339       2.92383805      14.98252833
Si       5.34137119       1.30351771       5.40289118
22
Lattice="5.468898078664224 -0.2515847210637302 0.051501975429022455 2.55260586983084 6.103859596823641 0.2620155386247027 1.1111899134087615 0.8667637260220676 16.437772247889306" Properties=species:S:1:pos:R:3 unique_starting_index=40 config_type=initial n_minim_iter=3 stress="0.002019334457602257 -0.00024151709294768529 -0.011335465900983874 -0.00024151709294768529 0.012437942281478027 -0.007635177151557485 -0.011335465900983874 -0.007635177151557485 -0.001329352234980834" pbc="T T T"
Si       5.82465734       2.88245927      12.80374742
Si       1.31094093       3.69600762       4.95219915
Si       5.26425335       0.48883343       7.33011258
Si       4.15228377       3.71047895      13.81455999
Si       3.72722774       2.67696592      15.63001926
Si       6.38986385       5.38662467       6.58511673
Si       5.77274521       2.42652266       1.90012604
Si       5.04273902       4.48910421       9.76607935
Si       4.14564881       2.30691496       0.54718878
Si       4.49418175       4.66263600      15.67339835
Si       5.21224828       2.61945882      10.76929145
Si       4.56260752       4.30292580      11.86032115
Si       2.16226851       2.99442732       0.85420250
Si       0.94851882      -0.50834255       8.54107210
Si       1.72529903       2.77173170      16.34633810
Si       6.85500620       5.19173602       8.85941291
Si       3.38030993       2.80458737       4.44079635
Si       4.08354409       5.88585009       6.77850342
Si       5.17886635       3.55404332       3.57991789
Si       5.59210559       1.03657093       9.34875026
Si       5.71803607       2.92182737      14.93527013
Si       5.32528970       1.30634700       5.37986845
22
Lattice="5.471681592278491 -0.24959560393003746 0.06453683556195697 2.557119867196837 6.116172666519424 0.2807101728015249 1.153137938569135 0.9029772168131457 16.42832824565047" Properties=species:S:1:pos:R:3 unique_starting_index=40 config_type=initial n_minim_iter=4 stress="0.004572941371818625 7.219952697635597e-06 -4.554697754703852e-05 7.219952697635597e-06 0.018221621840237637 0.005541168188155201 -4.554697754703852e-05 0.005541168188155201 0.005756974488874143" pbc="T T T"
Si       5.85821967       2.91530316      12.80793303
Si       1.32203662       3.71359235       4.95507788
Si       5.28332068       0.50235723       7.33688212
Si       4.18817008       3.74480158      13.82155885
Si       3.76636370       2.71633320      15.62475829
Si       6.41510846       5.41584481       6.60810206
Si       5.78143112       2.43574929       1.91948949
Si       5.07229322       4.52141789       9.78232556
Si       4.15111965       2.31410590       0.56309679
Si       4.53669045       4.70611554      15.68414534
Si       5.24469602       2.64496984      10.78090639
Si       4.59678999       4.33796338      11.86781584
Si       2.17034300       3.00570059       0.86637733
Si       0.97192899      -0.49340954       8.53746874
Si       1.76640692       2.81026548      16.33817968
Si       6.88244897       5.22354095       8.87867991
Si       3.39488594       2.82042885       4.45131942
Si       4.10413922       5.91408478       6.79240411
Si       5.19474118       3.56993536       3.60473978
Si       5.61781336       1.06199460       9.36070248
Si       5.76101028       2.95983079      14.94217708
Si       5.34196939       1.32329463       5.38991082
22
Lattice="5.47983742038943 -0.24889954215525623 0.06336211833303314 2.5606081950723847 6.090790694526106 0.26862987406320055 1.1502877320820657 0.869841954492602 16.395183564938613" Properties=species:S:1:pos:R:3 unique_starting_index=40 config_type=initial n_minim_iter=5 stress="0.00709018494767138 0.0005975836235951527 -0.006929927034494939 0.0005975836235951527 0.0016076426060897945 8.219355065470927e-05 -0.006929927034494939 8.219355065470927e-05 -0.013536912533784527" pbc="T T T"
Si       5.86094698       2.87913887      12.77216430
Si       1.31938444       3.68982518       4.93532188
Si       5.28813180       0.48389124       7.32143613
Si       4.18890364       3.70319562      13.78772546
Si       3.76559809       2.67830775      15.58437770
Si       6.42498428       5.38430139       6.58508223
Si       5.78951100       2.42094049       1.91143529
Si       5.07784447       4.48626803       9.75752831
Si       4.15769902       2.30385964       0.55798075
Si       4.53772087       4.65785685      15.64709405
Si       5.25098806       2.61217267      10.75601500
Si       4.60064652       4.29970674      11.83378686
Si       2.17510534       2.99423716       0.85946846
Si       0.97163575      -0.50766679       8.52423811
Si       1.76419328       2.76911940      16.29883634
Si       6.88995698       5.18725873       8.85011714
Si       3.39892874       2.80106333       4.43717901
Si       4.10781565       5.87952387       6.76521025
Si       5.20408974       3.54884846       3.59699123
Si       5.62295593       1.04088393       9.34136630
Si       5.76635653       2.92040594      14.90565515
Si       5.34841224       1.30923909       5.37462341
22
Lattice="5.475563446698033 -0.24957523015035807 0.06563928983999785 2.557874017265589 6.086732584327742 0.26178471645007545 1.154731796899527 0.8469051993196138 16.425086067127655" Properties=species:S:1:pos:R:3 unique_starting_index=40 config_type=initial n_minim_iter=6 stress="0.0009922890202206797 0.0007069090574423604 -0.003790961061694222 0.0007069090574423604 0.003212059227909775 -0.005855889837059357 -0.003790961061694222 -0.005855889837059357 0.0037975479937436833" pbc="T T T"
Si       5.85917239       2.85883186      12.79242878
Si       1.31834100       3.68097530       4.93866470
Si       5.28648508       0.47229512       7.33725246
Si       4.18921645       3.68139112      13.80945175
Si       3.76689937       2.65544173      15.60953329
Si       6.42189724       5.37218913       6.59226854
Si       5.78549928       2.41566476       1.91430743
Si       5.07707984       4.47011710       9.77300157
Si       4.15444677       2.30124866       0.55780281
Si       4.53814707       4.63309862      15.67261144
Si       5.25067144       2.59439834      10.77486816
Si       4.60050108       4.28108400      11.85049751
Si       2.17349385       2.99190332       0.85797210
Si       0.97362116      -0.51949908       8.54219164
Si       1.76829847       2.74524272      16.32519166
Si       6.88691427       5.17177997       8.86195911
Si       3.39748661       2.79311444       4.44298089
Si       4.10606652       5.86726184       6.77003861
Si       5.20172447       3.54131926       3.60370668
Si       5.62119221       1.02673528       9.35991115
Si       5.76642518       2.89754815      14.93083190
Si       5.34581983       1.30108283       5.38410053
22
Lattice="5.471648427875882 -0.25623223841704706 0.06431755405908339 2.5489368218425312 6.094659350993806 0.2640180415079484 1.1494625802510563 0.8554934097589345 16.406630438960537" Properties=species:S:1:pos:R:3 unique_starting_index=40 config_type=initial n_minim_iter=7 stress="-0.007003915080481958 -0.006429323738897265 -0.008648493381430174 -0.006429323738897265 0.007184726361439781 -0.002605254954327754 -0.008648493381430174 -0.002605254954327754 -0.007236020781361743" pbc="T T T"
Si       5.84571826       2.86189179      12.77423757
Si       1.31000984       3.68854430       4.93150325
Si       5.28303921       0.47374573       7.33155476
Si       4.17799015       3.69005043      13.79147739
Si       3.75770705       2.66364629      15.58938271
Si       6.40865680       5.37782322       6.58424573
Si       5.77927572       2.41245155       1.91376932
Si       5.06835722       4.47709631       9.76874926
Si       4.14811082       2.30060024       0.55744016
Si       4.52449325       4.64311879      15.65936590
Si       5.24283878       2.59665829      10.76322438
Si       4.58984500       4.29102439      11.83468645
Si       2.16615640       2.99667257       0.85831718
Si       0.97071809      -0.51868002       8.53358014
Si       1.76344670       2.75749509      16.30566324
Si       6.87454038       5.17809161       8.85365795
Si       3.39097174       2.79661445       4.43918411
Si       4.09617570       5.87781655       6.76063777
Si       5.19484597       3.54351748       3.60900801
Si       5.61237386       1.02606574       9.34894430
Si       5.75426917       2.90315045      14.91111001
Si       5.33908242       1.30057293       5.37913320
22
Lattice="5.47483441883891 -0.24695364065149414 0.0675444842182099 2.5612576515675207 6.102613483071603 0.2628413192019476 1.1612463351767022 0.8511933194438629 16.398848235685495" Properties=species:S:1:pos:R:3 unique_starting_index=40 config_type=initial n_minim_iter=8 stress="-0.0017474639549494124 0.0013650985873152036 -0.0024405351419159536 0.0013650985873152036 0.00875763373809785 -0.0023072656355774264 -0.0024405351419159536 -0.0023072656355774264 -0.009083125538906962" pbc="T T T"
Si       5.86046333       2.86774283      12.76894748
Si       1.31996641       3.69094625       4.92752537
Si       5.29350110       0.48171109       7.33152892
Si       4.19487451       3.69407111      13.78407170
Si       3.77393965       2.66482745      15.58164841
Si       6.42540553       5.38934803       6.58143392
Si       5.78873018       2.42223201       1.91598867
Si       5.08596749       4.48469570       9.76741952
Si       4.15503178       2.30868531       0.55822769
Si       4.54378870       4.64681813      15.65339836
Si       5.25745870       2.60184405      10.75939569
Si       4.60729435       4.29725055      11.82824756
Si       2.17241853       3.00251438       0.85791873
Si       0.97532508      -0.52143646       8.53077836
Si       1.77973656       2.75614378      16.29661497
Si       6.89316183       5.18948826       8.85154020
Si       3.40040580       2.80230228       4.43819237
Si       4.11317613       5.88646882       6.75582481
Si       5.20681815       3.55320194       3.61201437
Si       5.62277753       1.03189040       9.34755093
Si       5.77120495       2.90842136      14.90467840
Si       5.34792530       1.30844895       5.38025081
22
Lattice="5.470931059511092 -0.24143955734929265 0.06207511412698445 2.5650537182563196 6.097755136371002 0.26263789816120464 1.144862296485704 0.8566334982702466 16.418703544664183" Properties=species:S:1:pos:R:3 unique_starting_index=40 config_type=initial n_minim_iter=9 stress="-0.00753577584390472 0.00431168933251665 -0.005759130917089595 0.00431168933251665 0.003392111603035103 0.004370145568809773 -0.005759130917089595 0.004370145568809773 -0.002869667000930546" pbc="T T T"
Si       5.84484939       2.87276507      12.77916218
Si       1.31954017       3.68913918       4.93404786
Si       5.28509020       0.49062182       7.33392107
Si       4.18095068       3.69976120      13.79672123
Si       3.76018679       2.66985668      15.59718148
Si       6.41982906       5.39200520       6.58398814
Si       5.78534687       2.42392913       1.91478309
Si       5.07859787       4.48811195       9.77952660
Si       4.15369001       2.30926905       0.55432659
Si       4.52768149       4.64906551      15.67107393
Si       5.24589384       2.60567548      10.76618604
Si       4.59670634       4.30120181      11.83821269
Si       2.17138375       3.00208229       0.85763398
Si       0.96634408      -0.51874243       8.54075789
Si       1.76529177       2.76162344      16.31485546
Si       6.88445454       5.19265964       8.85853210
Si       3.39586267       2.80350383       4.44215994
Si       4.10984539       5.88670491       6.76039362
Si       5.20188549       3.55506944       3.61651961
Si       5.60997800       1.03835878       9.35646500
Si       5.75440181       2.91477230      14.91705298
Si       5.34015542       1.31355999       5.38529734
22
Lattice="5.473566382970878 -0.24601972557444318 0.06803043022171519 2.5613162502978457 6.092292578287858 0.2572755909287718 1.1615784572948546 0.8336351563029607 16.4165238405605" Properties=species:S:1:pos:R:3 unique_starting_index=40 config_type=initial n_minim_iter=10 stress="-0.004874826559100781 -0.0019156677762090205 0.0018871319976221722 -0.0019156677762090205 0.004446724297949733 -0.0017140485519945715 0.0018871319976221722 -0.0017140485519945715 4.973859532022695e-05" pbc="T T T"
Si       5.85650433       2.84784775      12.77908116
Si       1.32522558       3.67943207       4.93108060
Si       5.29608774       0.47828374       7.33639073
Si       4.19278322       3.67865005      13.79246342
Si       3.77791817       2.64427969      15.59403029
Si       6.42549278       5.37679605       6.58155299
Si       5.78787106       2.41367505       1.91897436
Si       5.08937295       4.46976381       9.78134812
Si       4.15415451       2.30252007       0.55363282
Si       4.53943517       4.62073090      15.66786537
Si       5.25715863       2.58417927      10.76346048
Si       4.60733713       4.28090345      11.83373046
Si       2.16876008       2.99861322       0.85561439
Si       0.97703781      -0.53262314       8.54092204
Si       1.78106623       2.73957116      16.30927321
Si       6.89189283       5.17275218       8.85879174
Si       3.39894381       2.79331461       4.44239750
Si       4.11462649       5.87268585       6.75425345
Si       5.20269491       3.54402382       3.62064802
Si       5.62027169       1.01991434       9.36236150
Si       5.76862059       2.88837450      14.91555300
Si       5.34682412       1.30148079       5.39157625
22
Lattice="5.472726045963837 -0.24053565034170202 0.06785219422322757 2.566603205442094 6.08422654028496 0.259211753856561 1.161969176634825 0.8385212714241733 16.41724090256529" Properties=species:S:1:pos:R:3 unique_starting_index=40 config_type=initial n_minim_iter=11 stress="-0.0014138175030277542 -0.003765029479323312 0.004091275547201188 -0.003765029479323312 -0.0015781045599147403 0.002048447626400212 0.004091275547201188 0.002048447626400212 0.002710269745653603" pbc="T T T"
Si       5.85432264       2.84850222      12.77834865
Si       1.33906126       3.67492506       4.93796516
Si       5.29659853       0.48457430       7.34481360
Si       4.19221323       3.68696829      13.79051633
Si       3.78087708       2.64455410      15.59269551
Si       6.43156240       5.37957394       6.58094400
Si       5.78808767       2.41198439       1.92327742
Si       5.09831616       4.47207414       9.78960243
Si       4.15547041       2.29946255       0.55101926
Si       4.53733432       4.62043532      15.66963206
Si       5.25814833       2.58706794      10.75645865
Si       4.61084797       4.28324742      11.83380467
Si       2.16872337       2.99729472       0.85605614
Si       0.97764182      -0.53201052       8.53697563
Si       1.78403902       2.74728956      16.30617051
Si       6.89811216       5.17604976       8.86109578
Si       3.39801447       2.79199480       4.44655013
Si       4.12355579       5.86981280       6.75356822
Si       5.19890827       3.54303057       3.62683597
Si       5.61846109       1.02173710       9.36666832
Si       5.77025274       2.89264332      14.91285724
Si       5.34727700       1.30893419       5.39457554
22
Lattice="5.4719206381872985 -0.23164549995014938 0.06726417804880537 2.5762909244851757 6.08848308256771 0.25604663847374126 1.161328709000031 0.8330878726402627 16.407703726919163" Properties=species:S:1:pos:R:3 unique_starting_index=40 config_type=initial n_minim_iter=12 stress="-0.0011662796813627428 -0.001725228205939372 0.0028274136762594416 -0.001725228205939372 -0.002352591630262063 -0.00012340146483996733 0.0028274136762594416 -0.00012340146483996733 0.006499038721800569" pbc="T T T"
Si       5.85296648       2.84793859      12.76550970
Si       1.34994104       3.67449110       4.93553669
Si       5.29652045       0.48766020       7.34168201
Si       4.19359542       3.69264376      13.77879008
Si       3.78319870       2.64157587      15.57984688
Si       6.44137981       5.39120240       6.57225274
Si       5.79030060       2.41834943       1.92212903
Si       5.10990707       4.47817066       9.78444475
Si       4.15630760       2.30345628       0.54885166
Si       4.53712791       4.62065240      15.65712637
Si       5.26005332       2.59375815      10.74449465
Si       4.61548134       4.28696697      11.82557831
Si       2.17113342       3.00042266       0.85380853
Si       0.97893668      -0.53841530       8.52761900
Si       1.79129538       2.74748056      16.29524477
Si       6.90649982       5.18638069       8.85360946
Si       3.39632997       2.79315104       4.44661534
Si       4.13381954       5.87529084       6.74738007
Si       5.20543992       3.54850374       3.62727774
Si       5.61824506       1.02178860       9.36732294
Si       5.77089415       2.89584372      14.89658375
Si       5.34837684       1.31875964       5.39224196
22
Lattice="5.473163480197766 -0.21399336457613122 0.06739296339303043 2.5971113911318735 6.101647473843764 0.25179595407347405 1.164741615594742 0.8267527610906508 16.39069385827411" Properties=species:S:1:pos:R:3 unique_starting_index=40 config_type=initial n_minim_iter=13 stress="0.0020022748016743147 0.0021458258388984837 -0.0010898618011439098 0.0021458258388984837 -0.006321082014733345 2.6584097028919575e-05 -0.0010898618011439098 2.6584097028919575e-05 -0.00032678752373204595" pbc="T T T"
Si       5.85690593       2.84994005      12.74321114
Si       1.36951552       3.67810017       4.92981701
Si       5.29872692       0.50181441       7.33780178
Si       4.20194256       3.70687626      13.75877233
Si       3.79697877       2.64636929      15.55361449
Si       6.46439509       5.41855355       6.55685298
Si       5.79669538       2.43396848       1.92010318
Si       5.13809382       4.50035602       9.77188293
Si       4.16361493       2.31335914       0.54355603
Si       4.54164653       4.62538510      15.63787266
Si       5.26868415       2.61076803      10.72434278
Si       4.62799789       4.30213048      11.81327380
Si       2.18003088       3.01030369       0.85283146
Si       0.98286870      -0.54782099       8.51462420
Si       1.79978164       2.75336945      16.27343398
Si       6.93097151       5.21358973       8.84268364
Si       3.40054683       2.79969066       4.44684106
Si       4.16205234       5.89085421       6.73598400
Si       5.22209778       3.55906325       3.63428329
Si       5.62560042       1.01822802       9.36893547
Si       5.78229616       2.90826228      14.87745466
Si       5.35476090       1.34113485       5.39100406
22
Lattice="5.476755303517463 -0.19990658300298972 0.07126883543077996 2.6153301973689596 6.1156862132216485 0.24526979692474488 1.1789133526997215 0.8095655716095158 16.36892543812262" Properties=species:S:1:pos:R:3 unique_starting_index=40 config_type=initial n_minim_iter=14 stress="0.0034290639238840816 0.001307007928802038 0.002330436591622111 0.001307007928802038 -0.005331390049815265 0.0012529840686905346 0.002330436591622111 0.0012529840686905346 0.0021106150461464427" pbc="T T T"
Si       5.86593883       2.83927538      12.72225285
Si       1.39267460       3.67952237       4.92309155
Si       5.30839012       0.50770078       7.33161859
Si       4.21907096       3.70938729      13.73169593
Si       3.81320315       2.63876103      15.52237531
Si       6.49506480       5.44415409       6.54111739
Si       5.80270366       2.44554528       1.91890396
Si       5.17416424       4.51835099       9.75574832
Si       4.16862336       2.32381399       0.54259204
Si       4.55396504       4.61950514      15.61825646
Si       5.28313723       2.61937637      10.69784877
Si       4.64671476       4.30991144      11.79775056
Si       2.18693702       3.01884361       0.85190877
Si       0.99349386      -0.56540443       8.50037016
Si       1.82334448       2.74987728      16.24324759
Si       6.96452137       5.23586727       8.82966143
Si       3.41217110       2.80307923       4.44520391
Si       4.19202686       5.90474217       6.72142692
Si       5.23529750       3.55956750       3.64513510
Si       5.64111998       0.99885842       9.37079670
Si       5.80840557       2.91003459      14.85100569
Si       5.36599379       1.35817781       5.39594852
22
Lattice="5.485373307595008 -0.18382880097978926 0.06427179005732885 2.6385339557424103 6.1494506868513374 0.23234543851489697 1.1617904647457713 0.7922991516550681 16.340303129378025" Properties=species:S:1:pos:R:3 unique_starting_index=40 config_type=initial n_minim_iter=15 stress="0.00655117509762739 0.0015966262137060683 -0.0020691221271612794 0.0015966262137060683 -0.002199138245721452 0.0020076121830517016 -0.0020691221271612794 0.0020076121830517016 0.0006121341446555896" pbc="T T T"
Si       5.85595448       2.83925914      12.68372757
Si       1.40765901       3.69239237       4.91269190
Si       5.31510657       0.51179102       7.31576747
Si       4.21294098       3.71924616      13.69670369
Si       3.81054531       2.64237821      15.47999023
Si       6.52241660       5.48818987       6.51074696
Si       5.81238079       2.46852497       1.90413127
Si       5.19709111       4.54863233       9.72747179
Si       4.17579049       2.34450231       0.52810881
Si       4.54402192       4.62712390      15.58671070
Si       5.28185465       2.63782379      10.65626437
Si       4.65139928       4.32837974      11.76770138
Si       2.19323022       3.03505457       0.84585881
Si       0.98815255      -0.58619934       8.48076384
Si       1.81667431       2.75059418      16.20547893
Si       6.98903035       5.27615779       8.79805031
Si       3.42414458       2.81623081       4.43317420
Si       4.21063958       5.94041882       6.69664239
Si       5.24455967       3.56910312       3.64275912
Si       5.64300932       0.98537617       9.35819864
Si       5.80508764       2.92161765      14.81239056
Si       5.37247447       1.38283438       5.38472078
22
Lattice="5.491482738822414 -0.15025098126902126 0.05994387392487544 2.681719394233005 6.215374391415077 0.2087291598722094 1.1540248840245138 0.7510085481341152 16.30141832345298" Properties=species:S:1:pos:R:3 unique_starting_index=40 config_type=initial n_minim_iter=16 stress="0.003481894499898641 0.003029616154405365 -3.344595545883057e-05 0.003029616154405365 -0.001649839518077356 -0.00214135663407729 -3.344595545883057e-05 -0.00214135663407729 -0.0012072744322601094" pbc="T T T"
Si       5.84513437       2.84185316      12.62937549
Si       1.43872770       3.71587893       4.89840875
Si       5.32349621       0.52662965       7.29893046
Si       4.21880200       3.72906165      13.65154411
Si       3.81946249       2.64881679      15.42814000
Si       6.57686112       5.57118722       6.46769011
Si       5.82454512       2.51847802       1.88195892
Si       5.25130633       4.59760889       9.69199610
Si       4.19747310       2.38414111       0.51481880
Si       4.54625646       4.64006506      15.54216219
Si       5.28587714       2.67931681      10.59287513
Si       4.68221812       4.34908285      11.71906537
Si       2.20393661       3.06166976       0.83472487
Si       0.98604381      -0.63088247       8.45332002
Si       1.82141378       2.73988257      16.14760449
Si       7.03662444       5.35081683       8.75271122
Si       3.44885698       2.83791655       4.41823025
Si       4.26293816       6.00388901       6.65018888
Si       5.26453258       3.58591114       3.64070841
Si       5.65056249       0.96506609       9.35150711
Si       5.80985132       2.93981778      14.75806012
Si       5.38400204       1.42652086       5.37994465
22
Lattice="5.489466403259884 -0.1388122540704137 0.05916658591995215 2.6950367591749598 6.247747386594265 0.19858345080171896 1.1524021731720047 0.7320315587387456 16.287266041952524" Properties=species:S:1:pos:R:3 unique_starting_index=40 config_type=initial n_minim_iter=17 stress="0.0033322278234270085 0.003242772029431663 -0.0008400556395068284 0.003242772029431663 0.0006722043800273335 -0.0032371778580981185 -0.0008400556395068284 -0.0032371778580981185 0.0014280000747725775" pbc="T T T"
Si       5.83899053       2.83814689      12.60894212
Si       1.44732707       3.72818706       4.89449269
Si       5.32659350       0.53339456       7.29728077
Si       4.21551930       3.73566510      13.63602323
Si       3.81861146       2.65330376      15.41372906
Si       6.59397621       5.60764735       6.45081154
Si       5.82858518       2.54144433       1.87497881
Si       5.27204436       4.62405233       9.67561756
Si       4.19576305       2.40560470       0.50781395
Si       4.54391012       4.63974248      15.52762947
Si       5.28413401       2.68966856      10.56477396
Si       4.69190749       4.36008690      11.69815946
Si       2.20742701       3.07306069       0.83194058
Si       0.98641766      -0.65180575       8.44124741
Si       1.82309677       2.73288896      16.12215601
Si       7.04663403       5.38249018       8.73576921
Si       3.45228988       2.84365912       4.41511763
Si       4.28234766       6.03383586       6.63017806
Si       5.27318962       3.59222299       3.63756762
Si       5.64919194       0.95736238       9.35112370
Si       5.80821752       2.94696294      14.73683463
Si       5.38435368       1.44231950       5.38148931
22
Lattice="5.48771690184634 -0.14098863591725247 0.05916546658280116 2.691891405595319 6.249611277780631 0.19870130888102114 1.1517210549562107 0.732410309597095 16.285159886432602" Properties=species:S:1:pos:R:3 unique_starting_index=40 config_type=initial n_minim_iter=18 stress="0.0027587227189992077 0.00273806857415585 -0.00028063065151097687 0.00273806857415585 0.0007759140072820702 -0.0020250749565487395 -0.00028063065151097687 -0.0020250749565487395 0.0016285017119579313" pbc="T T T"
Si       5.83217445       2.83123944      12.60361240
Si       1.44451831       3.72963520       4.89880392
Si       5.33113067       0.53352738       7.29947792
Si       4.20939163       3.73770629      13.63219794
Si       3.81458136       2.65367354      15.41146871
Si       6.59505414       5.61178619       6.45024706
Si       5.82931444       2.54203555       1.87245616
Si       5.27288556       4.62791981       9.67345253
Si       4.19618063       2.40755454       0.50945683
Si       4.53783164       4.63891787      15.52837502
Si       5.28153930       2.68798328      10.55663764
Si       4.68959608       4.36311320      11.69322608
Si       2.20030884       3.07091702       0.83592211
Si       0.98639507      -0.65351096       8.43609200
Si       1.81682410       2.73421068      16.11883773
Si       7.04295277       5.38523149       8.73399671
Si       3.44693111       2.83747845       4.41851052
Si       4.28084055       6.03809470       6.62821909
Si       5.27428124       3.58610679       3.63700606
Si       5.64654132       0.95515880       9.35338343
Si       5.80194015       2.94852415      14.73370797
Si       5.38155582       1.44196423       5.38571342
22
Lattice="5.4860146952872215 -0.14541653863494633 0.05840727302827469 2.685923867519587 6.244213978566537 0.19660754107372405 1.1481206539831217 0.7264464537102974 16.282392556489093" Properties=species:S:1:pos:R:3 unique_starting_index=40 config_type=initial n_minim_iter=19 stress="7.175954315925199e-05 0.000865236916920523 -0.0007903986665951557 0.000865236916920523 0.0030364811168294144 -0.0016933468137071393 -0.0007903986665951557 -0.0016933468137071393 0.0011086427806190676" pbc="T T T"
Si       5.81890889       2.81601532      12.59587748
Si       1.43866256       3.72508146       4.90266366
Si       5.33202695       0.53043453       7.29969637
Si       4.20360883       3.72979114      13.62403924
Si       3.80837360       2.64118340      15.40788901
Si       6.59248164       5.60449798       6.44745082
Si       5.82828677       2.53576656       1.87073604
Si       5.26430718       4.61854503       9.66871722
Si       4.18920729       2.40531746       0.50859194
Si       4.52778096       4.62947534      15.52404533
Si       5.27856761       2.67992728      10.55088653
Si       4.68260751       4.35737936      11.68638571
Si       2.19818321       3.06554704       0.83687898
Si       0.98769407      -0.65708534       8.43370906
Si       1.80794219       2.72572637      16.11590273
Si       7.03524550       5.37647547       8.72898306
Si       3.44250645       2.82681107       4.41906569
Si       4.27750520       6.03080493       6.62316855
Si       5.26953058       3.57344084       3.63509760
Si       5.64296950       0.94929474       9.35547429
Si       5.79069781       2.94005852      14.72924758
Si       5.37717797       1.43559628       5.38582345
22
Lattice="5.484008732453031 -0.15338125260105248 0.05696745399966032 2.675823535286009 6.239413938047572 0.1997566931983331 1.142513648726783 0.7349342544315214 16.27820085557799" Properties=species:S:1:pos:R:3 unique_starting_index=40 config_type=initial n_minim_iter=20 stress="-0.0031890142435026664 -0.0019418171565638888 0.0010821886469568778 -0.0019418171565638888 0.0030265077402433726 0.0030286809239400154 0.0010821886469568778 0.0030286809239400154 -0.0005392417652413854" pbc="T T T"
Si       5.80040839       2.80796976      12.58959322
Si       1.42961266       3.72516068       4.90992059
Si       5.33652392       0.53212062       7.29891875
Si       4.19135588       3.73278927      13.62224789
Si       3.79513072       2.64307719      15.40124324
Si       6.58556426       5.60068275       6.44704089
Si       5.82135922       2.52636916       1.87060026
Si       5.25355445       4.61705910       9.66482249
Si       4.18303579       2.40015473       0.50866756
Si       4.50982858       4.63239204      15.51848175
Si       5.27237227       2.68065514      10.54310656
Si       4.67191462       4.36056772      11.68316587
Si       2.19404264       3.06108653       0.83912285
Si       0.98750566      -0.65146457       8.42927902
Si       1.79848744       2.73282402      16.11255434
Si       7.02313223       5.37314493       8.72784201
Si       3.43694978       2.81826641       4.42150863
Si       4.26861705       6.03017992       6.62374918
Si       5.26059198       3.55948139       3.63987080
Si       5.63978681       0.94444980       9.35861987
Si       5.77790701       2.94371416      14.72322675
Si       5.37101194       1.43291688       5.38458737
22
Lattice="5.486098353046335 -0.15971958173592124 0.05346938954129991 2.669617306273416 6.239375461969999 0.19735683186789268 1.1313439311211722 0.7322350157857113 16.271584621859592" Properties=species:S:1:pos:R:3 unique_starting_index=40 config_type=initial n_minim_iter=21 stress="-0.0022868205841066287 -0.003569694786285679 -0.0015747526136169446 -0.003569694786285679 0.001510996276418621 0.005351993113804067 -0.0015747526136169446 0.005351993113804067 0.0016506623975045458" pbc="T T T"
Si       5.77488293       2.79291937      12.58039740
Si       1.42143791       3.72420469       4.91600242
Si       5.34260772       0.53101630       7.29512490
Si       4.17628145       3.72752727      13.61031989
Si       3.77899429       2.63766604      15.38899175
Si       6.58815307       5.60181877       6.44066298
Si       5.81765838       2.51761416       1.86671608
Si       5.24673595       4.61460372       9.65316438
Si       4.18024344       2.39831124       0.49895587
Si       4.48816115       4.62782670      15.51092652
Si       5.26583358       2.67997750      10.52606127
Si       4.66309060       4.35760697      11.67483313
Si       2.19016190       3.05854395       0.83827450
Si       0.98428265      -0.65269554       8.42366003
Si       1.78434327       2.73129835      16.10376484
Si       7.01760144       5.37188675       8.71850928
Si       3.43012550       2.80549271       4.42291408
Si       4.26389906       6.03133237       6.61797088
Si       5.25759809       3.54336779       3.64308787
Si       5.63926118       0.93093320       9.36068715
Si       5.76399363       2.94175417      14.71080443
Si       5.36697510       1.43112685       5.37940663
