22
Lattice="5.404718985665087 0.5241280766183427 -0.14047960703091003 3.2764540426762307 5.7616125330205845 0.29145493210007645 0.5916107824948481 1.400794823829809 17.021249850259284" Properties=species:S:1:pos:R:3 unique_starting_index=40 config_type=initial n_minim_iter=1 energy=-3584.0124765725805 free_energy=-3584.0124765725805 pbc="T T T"
Si       6.02055840       3.15886950      13.34714681
Si       1.38241770       3.42722117       5.49055031
Si       4.64667440       1.67572488       7.43821709
Si       3.96267253       4.44930646      14.42933230
Si       3.50104294       3.19170134      16.11264867
Si       6.60665651       6.03430082       6.85276963
Si       5.88322514       2.95171750       1.99212260
Si       5.53189353       5.04309958      10.15803043
Si       4.42019460       2.50233421       0.40829814
Si       5.22834539       5.42351726      15.90569858
Si       5.57991485       3.24052550      11.27703740
Si       4.23888000       4.47458522      12.35359614
Si       2.39038676       3.13833818       0.64998944
Si       0.65981360       0.22928670       8.77839444
Si       1.84939771       1.79973732      16.26148847
Si       7.31195797       5.95477385       9.10838296
Si       3.41659735       3.20973997       4.28111301
Si       4.41443262       6.85098778       6.93315982
Si       5.24582939       4.50271780       3.64911446
Si       4.96662529       2.40510461       9.41547795
Si       5.50408742       3.35433408      15.40916573
Si       4.65360738       1.65173724       5.32490042
22
Lattice="5.41403063796273 0.5431784028014592 -0.1341709570762324 3.3052874039184315 5.738816257328384 0.30412268351041577 0.6124743671968953 1.4282466736495434 16.93279941978817" Properties=species:S:1:pos:R:3 unique_starting_index=40 config_type=initial n_minim_iter=2 stress="-0.018803579606937636 0.0015467625110242283 -0.002886897126692868 0.0015467625110242283 -0.005913166403220232 -0.0013869527796232335 -0.002886897126692868 -0.0013869527796232335 -0.025403950430154303" pbc="T T T"
Si       6.05193848       3.19099599      13.28807687
Si       1.40328065       3.42182997       5.46887456
Si       4.66588638       1.70069609       7.40672656
Si       3.99988249       4.46460610      14.36624636
Si       3.53328403       3.21838373      16.03365371
Si       6.64576211       6.03604910       6.83292998
Si       5.90507272       2.96135895       1.99198605
Si       5.56905879       5.05326036      10.11824895
Si       4.43745487       2.50590564       0.41396360
Si       5.27111857       5.44086824      15.83507354
Si       5.61044283       3.26599821      11.22677075
Si       4.27397901       4.48839461      12.29815598
Si       2.40697963       3.12997208       0.65515222
Si       0.66998428       0.24817925       8.73243380
Si       1.87177937       1.82957662      16.17869511
Si       7.35330236       5.96438972       9.07761449
Si       3.43832049       3.21185517       4.26745889
Si       4.45589097       6.83919853       6.91271856
Si       5.27470042       4.50290264       3.64275209
Si       4.99128108       2.42946511       9.37353214
Si       5.53856100       3.38699426      15.33742070
Si       4.67106746       1.67154790       5.30234946
22
Lattice="5.436303900235017 0.5502276582070014 -0.12916160938822072 3.3272317883170595 5.734685879659452 0.31398878802928604 0.6319399150087499 1.4454472220735026 16.974827477255342" Properties=species:S:1:pos:R:3 unique_starting_index=40 config_type=initial n_minim_iter=3 stress="0.017428468541664757 0.0076663291960923875 -0.0032812674048427136 0.0076663291960923875 3.8475616955537134e-05 0.007208278411600661 -0.0032812674048427136 0.007208278411600661 -0.0028125763330839296" pbc="T T T"
Si       6.09143995       3.21002023      13.32936018
Si       1.41881078       3.42424407       5.48662411
Si       4.69273577       1.71434004       7.43109452
Si       4.03579433       4.47822551      14.41066442
Si       3.56711114       3.23590954      16.07654023
Si       6.68653044       6.04298279       6.86108101
Si       5.93460624       2.96744006       2.00479277
Si       5.60797760       5.06408365      10.15245117
Si       4.45976102       2.50914042       0.42092648
Si       5.31367605       5.45605439      15.88284028
Si       5.64771687       3.28101213      11.26122276
Si       4.30880602       4.50125261      12.33411145
Si       2.42125602       3.13006923       0.66301820
Si       0.68196501       0.25793262       8.75401201
Si       1.89506798       1.84856153      16.22025563
Si       7.39835444       5.97441240       9.11244991
Si       3.46065601       3.21634319       4.28417817
Si       4.49112775       6.84224523       6.93982579
Si       5.30543927       4.50729135       3.66079363
Si       5.02282164       2.44414052       9.40311672
Si       5.57999247       3.40612395      15.38322576
Si       4.69668771       1.68190758       5.31941389
22
Lattice="5.420982599881285 0.5445850975362821 -0.11199127127766156 3.3156369134346324 5.7068454971975235 0.3171667475743604 0.6878844052320958 1.4116859994225515 17.04157556431077" Properties=species:S:1:pos:R:3 unique_starting_index=40 config_type=initial n_minim_iter=4 stress="0.0007579474954648362 0.007002194237527296 0.008373245550671447 0.007002194237527296 -0.010016874164416252 0.00924467086239813 0.008373245550671447 0.00924467086239813 0.022528969713864297" pbc="T T T"
Si       6.11499847       3.17321246      13.40229048
Si       1.43189356       3.39923318       5.50706219
Si       4.70252159       1.69524175       7.47525820
Si       4.07413298       4.43077261      14.48102106
Si       3.61545856       3.19346565      16.14249341
Si       6.68777237       6.00088885       6.90091565
Si       5.92318866       2.94714200       2.02707624
Si       5.62588646       5.02152799      10.20273923
Si       4.44826198       2.49494887       0.43076662
Si       5.34893334       5.39993894      15.95409561
Si       5.66995531       3.24272740      11.31768223
Si       4.33799483       4.46031005      12.38391446
Si       2.41343862       3.11679900       0.67150340
Si       0.71361487       0.24006132       8.79088719
Si       1.94082848       1.81861515      16.28687397
Si       7.40344815       5.92488230       9.16564016
Si       3.46447755       3.19297840       4.30810170
Si       4.50062878       6.79833353       6.97036405
Si       5.30026107       4.47782305       3.68572123
Si       5.03928046       2.41887937       9.45513776
Si       5.61889290       3.36033141      15.46165513
Si       4.70091142       1.66400681       5.34881178
22
Lattice="5.429978215249999 0.5332480292482781 -0.1146012789239628 3.3089993722591773 5.69909580282535 0.2934686230624667 0.6826900174657475 1.3449661030421372 16.984205092358188" Properties=species:S:1:pos:R:3 unique_starting_index=40 config_type=initial n_minim_iter=5 stress="0.014421017948884021 -0.0004221247902280401 0.002293929340412789 -0.0004221247902280401 -0.008076263079092575 -0.002101644742068972 0.002293929340412789 -0.002101644742068972 0.0035727974934489388" pbc="T T T"
Si       6.11089977       3.11199824      13.35205612
Si       1.42607490       3.37500794       5.47628738
Si       4.70287313       1.66067255       7.44631649
Si       4.07287750       4.36448746      14.42712485
Si       3.61641828       3.12289603      16.07674962
Si       6.68487719       5.96015778       6.85550209
Si       5.92658678       2.92637007       2.00719739
Si       5.62460726       4.97023238      10.15032424
Si       4.45161862       2.48412232       0.41557313
Si       5.34122579       5.32464866      15.88314018
Si       5.67263544       3.18373527      11.26983124
Si       4.33498145       4.40554357      12.32075113
Si       2.40881970       3.11315503       0.66025699
Si       0.71714221       0.20142750       8.76354200
Si       1.93324005       1.75821900      16.22940333
Si       7.39903728       5.86910961       9.11578407
Si       3.46348145       3.16898398       4.28266943
Si       4.49551702       6.76271936       6.92056182
Si       5.29867440       4.45211154       3.65603953
Si       5.03994685       2.37672267       9.41818882
Si       5.62267576       3.28506978      15.40455691
Si       4.70450640       1.63462271       5.32085144
22
Lattice="5.41818349798491 0.5391967622045003 -0.11695898567523129 3.3063689461732735 5.717602750756386 0.29731983818233787 0.6733734387411934 1.3660590183220795 16.98048884097416" Properties=species:S:1:pos:R:3 unique_starting_index=40 config_type=initial n_minim_iter=6 stress="-0.0031047032028233036 0.008372277881766116 -0.005417856075091274 0.008372277881766116 0.0016796423635653346 0.004588756332672948 -0.005417856075091274 0.004588756332672948 0.011299366618226118" pbc="T T T"
Si       6.08884330       3.14096627      13.34726617
Si       1.42300508       3.39049783       5.47690848
Si       4.68973458       1.67894158       7.44308134
Si       4.06478888       4.39270254      14.42776181
Si       3.60390693       3.14841455      16.07283214
Si       6.67015145       5.98773264       6.85542452
Si       5.91411544       2.94099863       2.00541645
Si       5.61160146       4.99819193      10.14868100
Si       4.44352378       2.49568336       0.41487494
Si       5.32343105       5.35823045      15.88087980
Si       5.65842827       3.20612222      11.26894902
Si       4.32303239       4.43452334      12.31669414
Si       2.40482248       3.12662588       0.66396985
Si       0.71281963       0.20946148       8.76145785
Si       1.92061161       1.78430670      16.22578182
Si       7.38156353       5.89789012       9.11572349
Si       3.45649379       3.18450510       4.28325412
Si       4.48795120       6.79181581       6.92272320
Si       5.28817544       4.47194571       3.65655638
Si       5.02478543       2.39937440       9.41612798
Si       5.60525965       3.31191440      15.40218818
Si       4.69226154       1.64913854       5.31648130
22
Lattice="5.418640396796675 0.5295781791702089 -0.09530021173980095 3.29824660166908 5.7148193498855475 0.3133444845162261 0.7372630355815911 1.3771239164474927 16.94951419040708" Properties=species:S:1:pos:R:3 unique_starting_index=40 config_type=initial n_minim_iter=7 stress="-0.0021501143192049687 0.0013103735669243411 0.008793323610580842 0.0013103735669243411 0.0062474384143100786 0.009907898943221517 0.008793323610580842 0.009907898943221517 -0.010719810566632357" pbc="T T T"
Si       6.13061371       3.14432897      13.34366196
Si       1.43875787       3.39288857       5.47268554
Si       4.71684296       1.67780760       7.44702009
Si       4.12316233       4.39609007      14.41696133
Si       3.66245382       3.15068809      16.05724707
Si       6.68677188       5.98233636       6.87072528
Si       5.91757578       2.93259840       2.02450653
Si       5.64548228       4.99662693      10.15203899
Si       4.44196746       2.49073051       0.43308232
Si       5.37390367       5.36029448      15.87227311
Si       5.70182026       3.20151918      11.27375150
Si       4.36488444       4.43943563      12.30953065
Si       2.40150291       3.12779544       0.67687844
Si       0.74803087       0.21216606       8.74779976
Si       1.98193792       1.79759601      16.20289892
Si       7.40867091       5.89178611       9.12878333
Si       3.46916816       3.18240589       4.29090477
Si       4.50370735       6.79220650       6.93044688
Si       5.29524857       4.46658761       3.67248939
Si       5.05788866       2.40121343       9.41879732
Si       5.66112412       3.31146290      15.39691263
Si       4.71125247       1.64648196       5.32221897
22
Lattice="5.42080345928909 0.5200192066166848 -0.09093251573879127 3.2929396145202365 5.676172043373588 0.2975131621075221 0.7560127359167435 1.30860222594586 16.9722188581678" Properties=species:S:1:pos:R:3 unique_starting_index=40 config_type=initial n_minim_iter=8 stress="-0.007840747985834702 -0.002210597781899311 0.0016320857833474534 -0.002210597781899311 0.004037613562903828 -0.008221059476214067 0.0016320857833474534 -0.008221059476214067 0.004017292591288797" pbc="T T T"
Si       6.13237243       3.07902992      13.35653745
Si       1.44172548       3.35086941       5.46913110
Si       4.72331149       1.63748658       7.45753219
Si       4.15654150       4.31177489      14.42733945
Si       3.67910076       3.06416149      16.08136657
Si       6.68902969       5.91383494       6.86783358
Si       5.91699519       2.89960986       2.02063271
Si       5.65672090       4.92177104      10.15508673
Si       4.43949457       2.47201715       0.43249795
Si       5.38161996       5.26326025      15.88287959
Si       5.72092760       3.12925791      11.29208767
Si       4.37700914       4.36901866      12.31485886
Si       2.39840857       3.10993955       0.67429916
Si       0.75934296       0.17620452       8.76501101
Si       2.00223769       1.73652123      16.22795627
Si       7.41626869       5.81216738       9.12863263
Si       3.47324167       3.14343224       4.29223387
Si       4.50552555       6.72297911       6.92177985
Si       5.29498848       4.41965297       3.66846482
Si       5.06749310       2.35284526       9.43119429
Si       5.67766678       3.22667123      15.41849771
Si       4.71743586       1.61514396       5.32513514
22
Lattice="5.424080107228079 0.5055682316882153 -0.09384857726677964 3.282428306772792 5.646476069647993 0.30463073791057466 0.74160501212312 1.329209867041366 16.97841696375985" Properties=species:S:1:pos:R:3 unique_starting_index=40 config_type=initial n_minim_iter=9 stress="-0.015809893156723823 -0.01150844169695241 -0.005875877071492391 -0.01150844169695241 -0.017436207132064167 0.004147237351279978 -0.005875877071492391 0.004147237351279978 -0.0026790261945166625" pbc="T T T"
Si       6.11109922       3.08061777      13.35978132
Si       1.43129249       3.34219462       5.47351964
Si       4.71651180       1.63219748       7.45710278
Si       4.15069313       4.30562496      14.43165056
Si       3.66599474       3.06834378      16.09258353
Si       6.67559299       5.88621828       6.87492774
Si       5.91173871       2.87681460       2.01907285
Si       5.64427798       4.90044547      10.16236126
Si       4.43330494       2.45440624       0.43659153
Si       5.35842691       5.25701679      15.89209778
Si       5.71498524       3.11993400      11.29503362
Si       4.36237339       4.36489689      12.32055065
Si       2.39270152       3.09670036       0.68064010
Si       0.75227136       0.18589211       8.76919148
Si       1.98885407       1.75633905      16.23689717
Si       7.40406967       5.78466148       9.13309662
Si       3.46668961       3.12926364       4.29741144
Si       4.48843288       6.69752051       6.93084493
Si       5.28546201       4.39507808       3.67302079
Si       5.05868313       2.35105112       9.43399009
Si       5.66713033       3.21917108      15.42609862
Si       4.71372459       1.60870373       5.32429001
22
Lattice="5.441588550607778 0.5143890709786874 -0.07824760826429196 3.303761017463443 5.640449251114042 0.30038552399668156 0.7993314666087112 1.2844651871336095 16.980416971552234" Properties=species:S:1:pos:R:3 unique_starting_index=40 config_type=initial n_minim_iter=10 stress="-0.0016525200222613377 -0.006295681108211494 0.003807602215709955 -0.006295681108211494 0.0023564735182817725 -0.010760220059875756 0.003807602215709955 -0.010760220059875756 0.0018641188862402126" pbc="T T T"
Si       6.15578653       3.06496886      13.37375961
Si       1.45859996       3.32225905       5.46670615
Si       4.75866161       1.61991576       7.46463288
Si       4.23787611       4.25960165      14.42624238
Si       3.74026080       3.02876879      16.10925108
Si       6.72634238       5.86785085       6.88152502
Si       5.93697740       2.87392058       2.02434483
Si       5.70473082       4.86391385      10.16914550
Si       4.44306319       2.45895030       0.45162528
Si       5.42611488       5.22091271      15.89911805
Si       5.78330561       3.08934516      11.30217979
Si       4.42361269       4.33961899      12.32130135
Si       2.40889341       3.09952282       0.68479271
Si       0.77780013       0.16130720       8.77714948
Si       2.05042214       1.72278691      16.24963174
Si       7.46947916       5.75672123       9.13872596
Si       3.49831204       3.11669138       4.30375448
Si       4.53319764       6.67557117       6.92786722
Si       5.31895658       4.38452480       3.67885264
Si       5.10682932       2.33788518       9.44328467
Si       5.74547802       3.16820111      15.44228638
Si       4.74806660       1.60470303       5.33344623
22
Lattice="5.466507855016784 0.5118039848544381 -0.07430136031924078 3.317964409817023 5.624807260346025 0.30511285279842115 0.81399726689612 1.2869306426733023 16.99654256877186" Properties=species:S:1:pos:R:3 unique_starting_index=40 config_type=initial n_minim_iter=11 stress="0.002297200245863569 -0.012253855229259116 -0.008898732140809653 -0.012253855229259116 0.010120762787255757 0.0047056616155720455 -0.008898732140809653 0.0047056616155720455 0.019222498764789337" pbc="T T T"
Si       6.15918312       3.08251712      13.39219606
Si       1.46736144       3.31206738       5.46756478
Si       4.79165984       1.61099170       7.47776257
Si       4.29446667       4.23146485      14.43926510
Si       3.77990095       3.03536292      16.13431088
Si       6.76037007       5.85438074       6.89554544
Si       5.95710942       2.86142603       2.02151186
Si       5.73703265       4.84407789      10.17744829
Si       4.45187112       2.45606994       0.46699579
Si       5.45064810       5.21938403      15.92386745
Si       5.83217903       3.06837444      11.31225478
Si       4.45400343       4.34277000      12.32302233
Si       2.42038109       3.10076710       0.69512741
Si       0.77130099       0.16385686       8.78726111
Si       2.08088505       1.72800643      16.28409704
Si       7.51658089       5.73601794       9.14446879
Si       3.51913108       3.10677425       4.31542385
Si       4.55344598       6.66081014       6.93710974
Si       5.34156924       4.37027353       3.68789647
Si       5.13360453       2.34124102       9.44680830
Si       5.78235819       3.14905313      15.47051969
Si       4.77413847       1.60767588       5.34246748
22
Lattice="5.485976989753613 0.5303817339799348 -0.06389453475710724 3.3516586672971465 5.608347716044521 0.3024110069972958 0.8569964344594938 1.253822444586021 16.999151760458364" Properties=species:S:1:pos:R:3 unique_starting_index=40 config_type=initial n_minim_iter=12 stress="-0.010491071630541393 0.002499179311032081 0.0041096145693142435 0.002499179311032081 -0.008801705353351508 -0.002579224422242661 0.0041096145693142435 -0.002579224422242661 0.024240961860296558" pbc="T T T"
Si       6.18665372       3.09011253      13.39756894
Si       1.49509815       3.28830220       5.45872741
Si       4.83044504       1.59904825       7.47780759
Si       4.37831695       4.17848677      14.43269023
Si       3.84369045       3.01782559      16.13937852
Si       6.82388957       5.84358306       6.90378070
Si       5.98283438       2.86152378       2.01866447
Si       5.79205370       4.81646825      10.17282019
Si       4.47177859       2.46751070       0.48531378
Si       5.51290957       5.19091369      15.93722395
Si       5.89152427       3.04807240      11.32196208
Si       4.52514850       4.31795219      12.30996564
Si       2.44100370       3.10367667       0.70273402
Si       0.78283515       0.14793385       8.79159071
Si       2.14312357       1.70115416      16.30949513
Si       7.58664083       5.70923900       9.14320033
Si       3.55406407       3.09457271       4.32220001
Si       4.60727665       6.63387675       6.93165392
Si       5.38055462       4.35954093       3.69305508
Si       5.17506811       2.34310880       9.44812346
Si       5.84916501       3.11549896      15.50147807
Si       4.80903557       1.61440990       5.35863057
22
Lattice="5.489987503695844 0.5334749073978267 -0.08081547940024836 3.3561781805821904 5.609393337812373 0.29489746380602744 0.8026192005699383 1.2655789278149807 16.953439050154802" Properties=species:S:1:pos:R:3 unique_starting_index=40 config_type=initial n_minim_iter=13 stress="0.002498096266949303 -0.00026850492208712424 -0.0055606851671109545 -0.00026850492208712424 -0.0009098762833743099 -0.000744159756990232 -0.0055606851671109545 -0.000744159756990232 -0.005878127826417058" pbc="T T T"
Si       6.11985659       3.12378493      13.35696075
Si       1.47796519       3.28941129       5.43403467
Si       4.81455638       1.60504005       7.44507759
Si       4.35929482       4.16813367      14.36136444
Si       3.79541830       3.04394914      16.08296379
Si       6.80959169       5.85257683       6.86768465
Si       5.97198128       2.86094009       1.98522958
Si       5.75582307       4.82328417      10.11582045
Si       4.47268262       2.48053366       0.48498786
Si       5.45733743       5.19638915      15.88901018
Si       5.86250831       3.04837947      11.26736091
Si       4.50338598       4.32947829      12.26452104
Si       2.43963832       3.11521067       0.70298784
Si       0.75580492       0.14856768       8.76976228
Si       2.11171870       1.71525288      16.28528088
Si       7.56263664       5.70318791       9.09318425
Si       3.54618353       3.09652227       4.30544319
Si       4.59200612       6.64159655       6.89724212
Si       5.37138257       4.36205606       3.67093852
Si       5.14382012       2.36374975       9.40214745
Si       5.80947102       3.12645695      15.46628977
Si       4.79757829       1.62612198       5.33152807
22
Lattice="5.478371790396716 0.5101969108306174 -0.07341348757625725 3.326126413700945 5.598658042516665 0.3089334928690122 0.8160108055539481 1.2935449510674029 16.957170309112517" Properties=species:S:1:pos:R:3 unique_starting_index=40 config_type=initial n_minim_iter=14 stress="0.008957218041195933 -0.0007237419179929746 0.0003816707955751654 -0.0007237419179929746 0.002935736435521403 0.008364521905960003 0.0003816707955751654 0.008364521905960003 -0.0039529942425548786" pbc="T T T"
Si       6.08254061       3.14270881      13.38860725
Si       1.46445730       3.29222874       5.43195139
Si       4.81840141       1.60336534       7.45811495
Si       4.37682310       4.15802183      14.36773738
Si       3.78204811       3.07849485      16.09641449
Si       6.77393123       5.83427656       6.87875664
Si       5.94513112       2.83685823       1.98928236
Si       5.72419948       4.81048018      10.11761012
Si       4.44706638       2.47194985       0.50733932
Si       5.42858004       5.19102873      15.90456563
Si       5.85604131       3.04623152      11.28232967
Si       4.50686175       4.33765674      12.25938138
Si       2.42094676       3.11348788       0.71408180
Si       0.76903426       0.15585815       8.77784006
Si       2.14188035       1.74087834      16.31742085
Si       7.53312467       5.67395046       9.10515195
Si       3.53373342       3.08820168       4.31788128
Si       4.56209822       6.63964027       6.90787583
Si       5.34411685       4.34616974       3.68690209
Si       5.13139632       2.36755347       9.40290639
Si       5.82768410       3.13233517      15.49157285
Si       4.79067939       1.62125939       5.33737232
22
Lattice="5.46944539350302 0.5038161653161669 -0.0616419627982906 3.314187023353468 5.603693397615387 0.3138421402467348 0.850450468385953 1.2892702907389242 16.941148294242392" Properties=species:S:1:pos:R:3 unique_starting_index=40 config_type=initial n_minim_iter=15 stress="0.005615458840052636 3.4382526972571656e-05 -0.00278320658039148 3.4382526972571656e-05 0.00481041242510268 0.0007222018704187798 -0.00278320658039148 0.0007222018704187798 -0.005717372419986889" pbc="T T T"
Si       6.06687166       3.15449472      13.39652242
Si       1.46680756       3.29166613       5.41808818
Si       4.82272634       1.59516500       7.46487634
Si       4.42785259       4.13450353      14.34794442
Si       3.81431959       3.09761717      16.09091273
Si       6.76539661       5.82874548       6.87635625
Si       5.93473990       2.83075953       1.99547942
Si       5.72156214       4.79572125      10.10612867
Si       4.42531243       2.47109460       0.52086635
Si       5.43234075       5.17618585      15.89338869
Si       5.87729866       3.03777534      11.28901065
Si       4.53051681       4.34402174      12.24154686
Si       2.41047164       3.12239002       0.72106930
Si       0.78916707       0.15147154       8.77722355
Si       2.18234860       1.73848181      16.32892414
Si       7.53189597       5.65757405       9.09914190
Si       3.53571292       3.08429128       4.32261098
Si       4.56800302       6.64375859       6.89833598
Si       5.33489500       4.34338922       3.69428429
Si       5.14119226       2.36823371       9.40116910
Si       5.86576654       3.12626505      15.51392406
Si       4.79414885       1.62136563       5.33590504
22
Lattice="5.468500935786552 0.5028007500148499 -0.05908792512358337 3.312526624862858 5.60536324252548 0.31456637566851947 0.8582251885225188 1.2873889132054754 16.93789032115438" Properties=species:S:1:pos:R:3 unique_starting_index=40 config_type=initial n_minim_iter=16 stress="-0.0027070882532389544 0.00576597288882258 0.002482819092835901 0.00576597288882258 0.00324000795886464 -0.004005168799349506 0.002482819092835901 -0.004005168799349506 -0.006561494872820936" pbc="T T T"
Si       6.06450111       3.15676603      13.39919170
Si       1.46784167       3.29149777       5.41500593
Si       4.82511622       1.59278532       7.46494898
Si       4.44061821       4.12853477      14.34317863
Si       3.82176855       3.09964695      16.08874356
Si       6.76592323       5.82863791       6.87607666
Si       5.93382016       2.82991268       1.99687659
Si       5.72301660       4.79167919      10.10431713
Si       4.42304220       2.47131952       0.52489443
Si       5.43486933       5.17352832      15.89123681
Si       5.88327701       3.03581899      11.28949272
Si       4.53603496       4.34592493      12.23708665
Si       2.40797903       3.12538216       0.72307342
Si       0.79244639       0.15083133       8.77638486
Si       2.19168711       1.73734706      16.33140634
Si       7.53309724       5.65369949       9.09830785
Si       3.53696122       3.08356842       4.32355486
Si       4.57004857       6.64493537       6.89624018
Si       5.33412326       4.34317346       3.69561867
Si       5.14486329       2.36829188       9.40165823
Si       5.87456889       3.12436895      15.51780706
Si       4.79583537       1.62144708       5.33612211
22
Lattice="5.462849587300348 0.5000330507974015 -0.05940010839259432 3.304150378341859 5.624749795504131 0.31060537064453364 0.8558870273695066 1.2819362234674232 16.91681334803333" Properties=species:S:1:pos:R:3 unique_starting_index=40 config_type=initial n_minim_iter=17 stress="0.003911834780613198 0.004663626379963074 -0.0010172739722836442 0.004663626379963074 0.0058393900435806285 -0.00410407677454842 -0.0010172739722836442 -0.00410407677454842 -0.009271954690569566" pbc="T T T"
Si       6.06277472       3.14729162      13.38681453
Si       1.46236997       3.30047049       5.40390275
Si       4.81665161       1.58622779       7.44912396
Si       4.43236071       4.13345127      14.31905094
Si       3.81935743       3.10255845      16.06114913
Si       6.75514689       5.84245483       6.86019214
Si       5.93352389       2.83751184       2.00145421
Si       5.71285983       4.79002330      10.09282580
Si       4.42026541       2.46971532       0.52398998
Si       5.42388357       5.17713760      15.86249292
Si       5.87618649       3.04259532      11.27689687
Si       4.52080204       4.36169573      12.21586726
Si       2.39418787       3.13723066       0.72095165
Si       0.78711401       0.15712632       8.76308804
Si       2.18049093       1.73090159      16.31236715
Si       7.51439908       5.65952400       9.08511312
Si       3.52999982       3.08939738       4.31542783
Si       4.56230477       6.66283786       6.88119120
Si       5.32494716       4.35429174       3.68778316
Si       5.14668879       2.36279978       9.40036695
Si       5.86576059       3.13364561      15.50276201
Si       4.78887601       1.62010719       5.32535549
22
Lattice="5.455165531932601 0.506842072515505 -0.058897582993640306 3.305704734642089 5.6356211038486395 0.30987831022775814 0.8582648903832114 1.2815597415094557 16.910468468881042" Properties=species:S:1:pos:R:3 unique_starting_index=40 config_type=initial n_minim_iter=18 stress="-0.003839427820463113 0.008194861742797502 -0.006851428760152223 0.008194861742797502 0.010758621269597073 -0.004538177168024229 -0.006851428760152223 -0.004538177168024229 -0.005071314285923111" pbc="T T T"
Si       6.06359456       3.14974896      13.38559073
Si       1.46423359       3.30537050       5.40004781
Si       4.80828753       1.58656344       7.44849758
Si       4.42987009       4.14083505      14.30642400
Si       3.81793345       3.10711392      16.05187915
Si       6.75470045       5.85765590       6.85578800
Si       5.93277419       2.84913583       2.00653991
Si       5.70920986       4.79992311      10.08719210
Si       4.41892996       2.47767291       0.52837149
Si       5.42538787       5.18938945      15.85835589
Si       5.87382856       3.04991898      11.27828952
Si       4.51578748       4.37720830      12.20663290
Si       2.39117023       3.14410157       0.72023893
Si       0.78618685       0.16249414       8.75903698
Si       2.17441381       1.73388541      16.30540387
Si       7.50862956       5.67437426       9.07966144
Si       3.52832765       3.09587587       4.31329547
Si       4.56580960       6.67473201       6.87641337
Si       5.32250034       4.36554348       3.68545500
Si       5.14793904       2.36589036       9.40175764
Si       5.86740923       3.14167507      15.49789915
Si       4.78376174       1.62657596       5.32122000
22
Lattice="5.452793470758522 0.49732347394895965 -0.05571526754776327 3.295731428674085 5.620581977137021 0.3091777104344761 0.8669106399141291 1.269534622648572 16.91755204847822" Properties=species:S:1:pos:R:3 unique_starting_index=40 config_type=initial n_minim_iter=19 stress="0.004649580638342843 -0.0006376923163386952 0.0007886696876823315 -0.0006376923163386952 0.013077809460460738 0.0005554211590103218 0.0007886696876823315 0.0005554211590103218 0.010733957315025064" pbc="T T T"
Si       6.06924448       3.12186065      13.39374150
Si       1.46112650       3.29422125       5.39888132
Si       4.80653134       1.57228722       7.45350605
Si       4.43156586       4.11589230      14.30528541
Si       3.82340841       3.08731916      16.05686677
Si       6.74859884       5.83344131       6.85652747
Si       5.93297944       2.83557418       2.01683497
Si       5.70157563       4.77264693      10.09088505
Si       4.41311761       2.47093765       0.53734033
Si       5.42736408       5.16847822      15.87304143
Si       5.87728041       3.03017602      11.28769479
Si       4.50916965       4.36755036      12.20266188
Si       2.38533655       3.13397132       0.71931900
Si       0.79602559       0.15760248       8.76573560
Si       2.18059368       1.71915603      16.31593833
Si       7.50122819       5.64691726       9.08404353
Si       3.52464517       3.08154487       4.31576197
Si       4.55724270       6.65196440       6.87729305
Si       5.31612873       4.34798623       3.68686160
Si       5.15272662       2.34474872       9.41008659
Si       5.86560815       3.11854600      15.50831292
Si       4.78353989       1.61422300       5.32554061
22
Lattice="5.456674236232709 0.48795903289012693 -0.06475362507818865 3.28940436109678 5.5985166074565855 0.29574019486903086 0.8390567821339341 1.2401266373145543 16.908369753905" Properties=species:S:1:pos:R:3 unique_starting_index=40 config_type=initial n_minim_iter=20 stress="-0.0005078071547651868 0.0028749681346985096 -0.0017815466952431909 0.0028749681346985096 -0.0005330498527516338 -0.00020026736661548448 -0.0017815466952431909 -0.00020026736661548448 0.00548843324439687" pbc="T T T"
Si       6.05090031       3.08015082      13.37571742
Si       1.44798433       3.27367180       5.38673544
Si       4.80244305       1.54948753       7.44412689
Si       4.40950754       4.07492910      14.27885807
Si       3.79665333       3.05028568      16.03986034
Si       6.73211055       5.79357328       6.82986899
Si       5.93389235       2.81659556       2.00829714
Si       5.67988739       4.73120831      10.06897704
Si       4.40993186       2.46146773       0.53190015
Si       5.39731573       5.12286974      15.85608905
Si       5.85794691       2.99884984      11.27140344
Si       4.48598670       4.33689491      12.17610209
Si       2.38052103       3.12119492       0.71123047
Si       0.78105692       0.14418939       8.75913034
Si       2.15510078       1.68742199      16.30870137
Si       7.48547150       5.60519021       9.05888321
Si       3.51582101       3.05954883       4.30460248
Si       4.53683080       6.61494911       6.85755905
Si       5.30774199       4.32216541       3.66975992
Si       5.14091580       2.31481525       9.39801211
Si       5.84104926       3.07675124      15.49666086
Si       4.77733964       1.59596574       5.31451067
22
Lattice="5.466687941581719 0.4682707324800634 -0.0755665978567689 3.2764862049525574 5.569021075545916 0.28506225418554654 0.8024046115437241 1.221669648146444 16.893683323641" Properties=species:S:1:pos:R:3 unique_starting_index=40 config_type=initial n_minim_iter=21 stress="-0.0020639178393737218 -0.0023890318363908748 -0.0006305520247314121 -0.0023890318363908748 -0.003179439705677072 -0.002239086051885196 -0.0006305520247314121 -0.002239086051885196 -0.005307521082283061" pbc="T T T"
Si       6.03269797       3.03274902      13.36083408
Si       1.42749943       3.25274214       5.37178511
Si       4.79741275       1.52222239       7.42185548
Si       4.38607316       4.03092851      14.25034901
Si       3.76140477       3.02510683      16.01278078
Si       6.70951356       5.74402780       6.79901119
Si       5.93825151       2.78789869       2.00267261
Si       5.64900245       4.68948989      10.03739001
Si       4.40214321       2.44780718       0.53232847
Si       5.35257649       5.07607911      15.83373506
Si       5.83221640       2.96455537      11.25516379
Si       4.45718696       4.30675434      12.14732496
Si       2.37371901       3.10346506       0.70374218
Si       0.76157770       0.13415871       8.74951205
Si       2.12172456       1.66294230      16.29875861
Si       7.46750373       5.55425904       9.03085085
Si       3.50347404       3.03210136       4.29317356
Si       4.50494886       6.57216248       6.83786401
Si       5.29620447       4.28878307       3.65146414
Si       5.12796842       2.27987424       9.38460215
Si       5.81271007       3.03591327      15.47782977
Si       4.77240692       1.57344836       5.30418650
