16
Lattice="5.329957533274892 6.906469706751577e-09 1.0361807702571528 -7.961847779946166e-07 11.896483384901131 4.016160572349398e-06 -0.04253205310874384 -5.948243893159013 6.510401975040144" Properties=species:S:1:pos:R:3 unique_starting_index=69 config_type=initial n_minim_iter=1 energy=-2599.3254929605796 free_energy=-2599.3254929605796 pbc="T T T"
Si       2.09938967       1.16391570       4.16399840
Si       3.18803487       7.11215773       3.38258785
Si       3.18803503       4.78432499       3.38258706
Si       2.09938982      -1.16391704       4.16399761
Si       3.16148798       8.75045366       1.77308992
Si       2.12593634       2.80221055       5.77349743
Si       2.12593671      -2.80221297       5.77349554
Si       3.16148836       3.14603014       1.77308803
Si       3.43632618       4.73265321       5.71080666
Si       1.85109867      -1.21558728       1.83577798
Si       1.85109851       1.21558748       1.83577880
Si       3.43632602       7.16382797       5.71080748
Si       0.64943249       9.30447544       0.68427690
Si       4.63799175       3.35623193       6.86231083
Si       4.63799220      -3.35623475       6.86230856
Si       0.64943294       2.59200876       0.68427463
16
Lattice="5.455382894702181 1.3367376931956858e-08 1.0419075550845067 -7.78969607903006e-07 11.63925668115121 3.929322830920823e-06 -0.04550496452529319 -5.819630557054669 6.556527638409146" Properties=species:S:1:pos:R:3 unique_starting_index=69 config_type=initial n_minim_iter=2 stress="0.0127184345107866 -1.401094895171944e-09 0.007810272568282003 -1.401094895171944e-09 -0.005743617990810611 -7.112011424615018e-09 0.007810272568282003 -7.112011424615018e-09 0.016871600237168067" pbc="T T T"
Si       2.14864785       1.13592941       4.21660988
Si       3.26122916       6.95555810       3.38182869
Si       3.26122931       4.68369789       3.38182793
Si       2.14864800      -1.13593080       4.21660912
Si       3.23466374       8.55059590       1.76126098
Si       2.17521305       2.73096611       5.83717867
Si       2.17521342      -2.73096860       5.83717683
Si       3.23466411       3.08866119       1.76125914
Si       3.47705658       4.62653064       5.78204375
Si       1.93282075      -1.19309647       1.81639325
Si       1.93282059       1.19309667       1.81639406
Si       3.47705642       7.01272377       5.78204456
Si       0.68049458       9.10083844       0.68161565
Si       4.72938214       3.28120827       6.91682438
Si       4.72938258      -3.28121114       6.91682216
Si       0.68049502       2.53841903       0.68161343
16
Lattice="5.490843486289395 5.437392416818309e-08 0.9274697688066733 -7.622074797128053e-07 11.388799265209185 3.84477034959072e-06 -0.15543861326522948 -5.694401804115977 6.401532707315005" Properties=species:S:1:pos:R:3 unique_starting_index=69 config_type=initial n_minim_iter=3 stress="-0.004242716441510832 2.3043169639586067e-09 0.0006121710084300984 2.3043169639586067e-09 -0.04176144785838422 -1.1368183236152212e-08 0.0006121710084300984 -1.1368183236152212e-08 -0.007965785060391962" pbc="T T T"
Si       2.10014172       1.10785494       4.11777304
Si       3.23526228       6.80225496       3.21123274
Si       3.23526242       4.58654371       3.21123200
Si       2.10014187      -1.10785630       4.11777230
Si       3.23606656       8.34931174       1.62785872
Si       2.09933723       2.65491066       5.70114811
Si       2.09933759      -2.65491309       5.70114632
Si       3.23606691       3.03948800       1.62785693
Si       3.34950174       4.52063504       5.63789647
Si       1.98590256      -1.17376335       1.69110777
Si       1.98590240       1.17376361       1.69110857
Si       3.34950158       6.86816200       5.63789727
Si       0.69723043       8.90035113       0.63736872
Si       4.63817329       3.20594972       6.69163848
Si       4.63817371      -3.20595247       6.69163632
Si       0.69723086       2.48844894       0.63736656
16
Lattice="5.6253740452103935 1.3172941070146767e-07 0.7250010027112832 -7.815220802323627e-07 11.677395370092745 3.9421981581375e-06 -0.36801854568763936 -5.838699808610564 6.217362755583941" Properties=species:S:1:pos:R:3 unique_starting_index=69 config_type=initial n_minim_iter=4 stress="-0.0065007216592218664 6.606040930491538e-09 -0.015139458440493947 6.606040930491538e-09 -0.028839952067837137 -8.138493226809067e-09 -0.015139458440493947 -8.138493226809067e-09 -0.0077338125526641615" pbc="T T T"
Si       2.02992904       1.13010228       4.00035359
Si       3.22742560       6.96880040       2.94201363
Si       3.22742575       4.70859458       2.94201287
Si       2.02992919      -1.13010354       4.00035282
Si       3.28248288       8.52431003       1.40000509
Si       1.97487156       2.68561085       5.54236318
Si       1.97487192      -2.68561316       5.54236137
Si       3.28248324       3.15308601       1.40000327
Si       3.12936095       4.62203108       5.46587377
Si       2.12799401      -1.21666533       1.47649187
Si       2.12799384       1.21666579       1.47649269
Si       3.12936079       7.05536219       5.46587459
Si       0.74134657       9.11448858       0.55943267
Si       4.51600778       3.27578918       6.38293600
Si       4.51600822      -3.27579172       6.38293379
Si       0.74134701       2.56290768       0.55943046
16
Lattice="5.678374998097172 1.348191550888552e-07 0.7263558940018253 -7.967355566615401e-07 11.904713044301394 4.01893884352765e-06 -0.334048127543427 -5.952358586590399 6.04896139058314" Properties=species:S:1:pos:R:3 unique_starting_index=69 config_type=initial n_minim_iter=5 stress="0.007831770116184368 1.434241710740477e-09 0.0025150082376199975 1.434241710740477e-09 -0.026284815432224634 -4.658153867175575e-09 0.0025150082376199975 -4.658153867175575e-09 -0.011988060696761832" pbc="T T T"
Si       2.07282018       1.14867607       3.93382125
Si       3.27150581       7.10103304       2.84149962
Si       3.27150597       4.80367972       2.84149885
Si       2.07282033      -1.14867726       3.93382047
Si       3.32140433       8.67130970       1.33568342
Si       2.02292145       2.71895170       5.43963851
Si       2.02292181      -2.71895391       5.43963667
Si       3.32140469       3.23340408       1.33568159
Si       3.11947663       4.70380009       5.37878219
Si       2.22484967      -1.24855515       1.39653706
Si       2.22484951       1.24855570       1.39653790
Si       3.11947647       7.20091093       5.37878303
Si       0.77949725       9.28531748       0.53049708
Si       4.56482845       3.33295928       6.24482527
Si       4.56482889      -3.33296169       6.24482301
Si       0.77949770       2.61939651       0.53049483
16
Lattice="5.46970650494769 9.904961774701407e-08 0.7909432095593679 -8.227248975198612e-07 12.293042202608238 4.15003575722216e-06 -0.2641100539018575 -6.146523179502956 6.10358288083275" Properties=species:S:1:pos:R:3 unique_starting_index=69 config_type=initial n_minim_iter=6 stress="-0.01227162557097114 -2.553424264105859e-09 0.005283835640566524 -2.553424264105859e-09 -0.0007717271069752337 1.7675241864967612e-09 0.005283835640566524 1.7675241864967612e-09 -0.004959908610225882" pbc="T T T"
Si       2.03483636       1.18224359       4.00304740
Si       3.17075917       7.32876515       2.89148242
Si       3.17075933       4.96427676       2.89148162
Si       2.03483651      -1.18224479       4.00304660
Si       3.20884594       8.94575983       1.36780710
Si       1.99674937       2.79923724       5.52672381
Si       1.99674974      -2.79923947       5.52672192
Si       3.20884631       3.34728311       1.36780521
Si       3.03043334       4.84438243       5.47710349
Si       2.17516251      -1.30213736       1.41742465
Si       2.17516234       1.30213792       1.41742553
Si       3.03043317       7.44865771       5.47710437
Si       0.76151851       9.58651281       0.53367905
Si       4.44407671       3.43998999       6.36085230
Si       4.44407717      -3.43999246       6.36084997
Si       0.76151897       2.70653036       0.53367672
16
Lattice="5.526803779442019 1.2230696078498919e-07 0.7333706580359397 -8.337378138976394e-07 12.457595691115458 4.205587738924976e-06 -0.3386311266018671 -6.2287999352421775 6.122831546864923" Properties=species:S:1:pos:R:3 unique_starting_index=69 config_type=initial n_minim_iter=7 stress="0.010622512921011818 7.673806946542989e-10 -0.00298268410913659 7.673806946542989e-10 0.014201848435567049 7.323008046578778e-11 -0.00298268410913659 7.323008046578778e-11 0.013393627642879963" pbc="T T T"
Si       2.01801622       1.19467032       3.98586297
Si       3.17015551       7.42346862       2.87034303
Si       3.17015567       5.03412680       2.87034222
Si       2.01801638      -1.19467150       3.98586216
Si       3.21849572       9.06025074       1.34111899
Si       1.96967579       2.83145140       5.51508810
Si       1.96967617      -2.83145361       5.51508619
Si       3.21849609       3.39734573       1.34111708
Si       3.01382060       4.88752710       5.44883464
Si       2.17435147      -1.34126944       1.40736964
Si       2.17435129       1.34127002       1.40737054
Si       3.01382042       7.57006656       5.44883555
Si       0.76935182       9.72105821       0.53148279
Si       4.41881960       3.49225865       6.32472475
Si       4.41882007      -3.49226108       6.32472239
Si       0.76935229       2.73653847       0.53148044
16
Lattice="5.352451635201893 1.0246152138512789e-07 0.7575914079634526 -8.484835458614495e-07 12.67792439873696 4.279969003429286e-06 -0.26497737500388213 -6.338964210013225 5.903305299048748" Properties=species:S:1:pos:R:3 unique_starting_index=69 config_type=initial n_minim_iter=8 stress="-0.0036888543325286232 3.3641497505172862e-09 -0.006762379754595837 3.3641497505172862e-09 -0.01984431846612365 -2.916058240023766e-09 -0.006762379754595837 -2.916058240023766e-09 -0.012547115843529072" pbc="T T T"
Si       2.03555776       1.19067201       3.87425640
Si       3.05191555       7.52963464       2.78664421
Si       3.05191571       5.14828955       2.78664341
Si       2.03555792      -1.19067308       3.87425560
Si       3.05635879       9.16590778       1.30730204
Si       2.03111430       2.82694415       5.35359968
Si       2.03111468      -2.82694623       5.35359777
Si       3.05635917       3.51201741       1.30730013
Si       2.94608509       4.81409351       5.29488071
Si       2.14138858      -1.52486742       1.36601807
Si       2.14138837       1.52486805       1.36601910
Si       2.94608489       7.86382898       5.29488174
Si       0.79331109       9.92319367       0.49722957
Si       4.29416190       3.58422979       6.16367265
Si       4.29416238      -3.58423211       6.16367023
Si       0.79331157       2.75473177       0.49722715
16
Lattice="5.257750122797833 7.075558322547145e-08 0.8327351323586355 -8.720995841512227e-07 13.03079199178548 4.399094367154716e-06 -0.14771610342010214 -6.515397955763736 5.776152093412453" Properties=species:S:1:pos:R:3 unique_starting_index=69 config_type=initial n_minim_iter=9 stress="-0.019898599633295704 6.652343311157632e-10 0.0002637342117745635 6.652343311157632e-10 -0.031168763090048804 -8.768066476638213e-10 0.0002637342117745635 -8.768066476638213e-10 -0.028519243917418467" pbc="T T T"
Si       2.10221745       1.20118373       3.83345974
Si       3.00781557       7.71658014       2.77543154
Si       3.00781573       5.31421168       2.77543072
Si       2.10221761      -1.20118473       3.83345893
Si       2.96317722       9.38105292       1.32546484
Si       2.14685557       2.86565553       5.28342757
Si       2.14685596      -2.86565751       5.28342563
Si       2.96317760       3.64973988       1.32546290
Si       2.97243925       4.81756296       5.23658994
Si       2.13759415      -1.69783178       1.37229938
Si       2.13759392       1.69783245       1.37230053
Si       2.97243903       8.21322719       5.23659109
Si       0.80925634      10.21662885       0.47218046
Si       4.30077634       3.70123118       6.13671251
Si       4.30077684      -3.70123344       6.13671001
Si       0.80925684       2.81416423       0.47217796
16
Lattice="5.272401265173369 4.939971297859242e-08 0.8988990139526495 -8.870022993276835e-07 13.253466315511728 4.474267490959411e-06 -0.05780323743147138 -6.626735095611942 5.728765277535697" Properties=species:S:1:pos:R:3 unique_starting_index=69 config_type=initial n_minim_iter=10 stress="-0.011977301401777071 -1.937530433098144e-09 0.00981988442610668 -1.937530433098144e-09 -0.03256098813812214 3.0877922954765666e-09 0.00981988442610668 3.0877922954765666e-09 -0.039760757902595006" pbc="T T T"
Si       2.18826946       1.20344878       3.82760839
Si       3.02632753       7.83018234       2.80006004
Si       3.02632769       5.42328382       2.80005923
Si       2.18826962      -1.20344974       3.82760758
Si       2.94652650       9.52349230       1.35620268
Si       2.26807027       2.89675778       5.27146689
Si       2.26807065      -2.89675971       5.27146493
Si       2.94652689       3.72997482       1.35620073
Si       3.05232772       4.81163910       5.22702110
Si       2.16226968      -1.81509283       1.40064530
Si       2.16226944       1.81509350       1.40064652
Si       3.05232747       8.44182542       5.22702232
Si       0.82091863      10.39410263       0.45188880
Si       4.39367802       3.76736778       6.17578136
Si       4.39367852      -3.76737004       6.17577882
Si       0.82091914       2.85936481       0.45188626
16
Lattice="5.225286439778 3.116964741505387e-08 0.9435589706461579 -9.040869369991917e-07 13.508742601982938 4.560446784337531e-06 -0.022719879965276826 -6.754373270958425 5.830837683676933" Properties=species:S:1:pos:R:3 unique_starting_index=69 config_type=initial n_minim_iter=11 stress="-0.017100188036567706 -1.2381048045263052e-10 0.0014556031697375515 -1.2381048045263052e-10 -0.02259264567970975 -2.186130830807847e-09 0.0014556031697375515 -2.186130830807847e-09 -0.015828426119699552" pbc="T T T"
Si       2.21681494       1.20540364       3.90426629
Si       2.98575056       7.95977534       2.87013458
Si       2.98575072       5.54896707       2.87013376
Si       2.21681511      -1.20540463       3.90426547
Si       2.89184909       9.68984323       1.38814831
Si       2.31071618       2.93547054       5.38625372
Si       2.31071657      -2.93547252       5.38625174
Si       2.89184948       3.81890017       1.38814633
Si       3.03817468       4.81531600       5.33340506
Si       2.16439124      -1.93905405       1.44099368
Si       2.16439098       1.93905472       1.44099499
Si       3.03817442       8.69342476       5.33340637
Si       0.82658460      10.58833653       0.42843898
Si       4.37598055       3.83396347       6.34596365
Si       4.37598106      -3.83396582       6.34596106
Si       0.82658511       2.92040725       0.42843640
16
Lattice="5.260574321592495 3.8594936154642867e-08 0.9285597811120868 -9.166495390053308e-07 13.696451265309285 4.6238157722240924e-06 -0.04119193579087504 -6.848227603630986 5.8301656101676285" Properties=species:S:1:pos:R:3 unique_starting_index=69 config_type=initial n_minim_iter=12 stress="0.014764634801448672 -4.904571843928776e-10 0.005733063735847478 -4.904571843928776e-10 -0.006826047229042373 9.669003553305654e-10 0.005733063735847478 9.669003553305654e-10 -0.008553603917581781" pbc="T T T"
Si       2.23271283       1.21282724       3.90308195
Si       2.98666849       8.06105328       2.85564772
Si       2.98666865       5.63539783       2.85564690
Si       2.23271299      -1.21282821       3.90308113
Si       2.90046050       9.81266610       1.36573053
Si       2.31892058       2.96443906       5.39300032
Si       2.31892098      -2.96444103       5.39299832
Si       2.90046090       3.88378601       1.36572853
Si       3.01798393       4.85144560       5.33698380
Si       2.20139782      -1.99677876       1.42174370
Si       2.20139755       1.99677947       1.42174505
Si       3.01798366       8.84500383       5.33698515
Si       0.84397121      10.72447767       0.40283864
Si       4.37540974       3.87625027       6.35589283
Si       4.37541026      -3.87625260       6.35589021
Si       0.84397173       2.97197481       0.40283602
16
Lattice="5.249793447396635 2.4590016544042812e-08 0.9679072444033717 -9.319332144254056e-07 13.924817856091604 4.700910562380655e-06 -0.010768476536456083 -6.9624109277649975 5.921337610654314" Properties=species:S:1:pos:R:3 unique_starting_index=69 config_type=initial n_minim_iter=13 stress="0.0021226799149159695 -4.560083298317812e-09 0.013339261124596257 -4.560083298317812e-09 0.002972174987842615 -4.756606735659216e-09 0.013339261124596257 -4.756606735659216e-09 0.019706416130618527" pbc="T T T"
Si       2.26208936       1.23036147       3.94162888
Si       2.97693452       8.19277078       2.94762033
Si       2.97693469       5.73204688       2.94761950
Si       2.26208952      -1.23036243       3.94162805
Si       2.90267711       9.98615204       1.42498416
Si       2.33634653       3.02374171       5.46426625
Si       2.33634693      -3.02374370       5.46426421
Si       2.90267751       3.93866663       1.42498212
Si       3.05924015       4.92258655       5.40923691
Si       2.17978417      -2.03982111       1.48001008
Si       2.17978389       2.03982179       1.48001146
Si       3.05923988       9.00222945       5.40923829
Si       0.84792841      10.87192580       0.38759810
Si       4.39109511       3.90951505       6.50165291
Si       4.39109563      -3.90951746       6.50165027
Si       0.84792893       3.05289330       0.38759546
16
Lattice="5.234295988151542 5.159705058949251e-08 0.8848359701592639 -9.451726517251077e-07 14.122639704852018 4.7676936824336545e-06 -0.09788333563350711 -7.061321833263237 5.848136185012872" Properties=species:S:1:pos:R:3 unique_starting_index=69 config_type=initial n_minim_iter=14 stress="-0.005627117112240366 -1.0900332551931793e-09 -0.00017807249594297873 -1.0900332551931793e-09 0.01155827582203121 8.263743900681343e-10 -0.00017807249594297873 8.263743900681343e-10 0.009075123864423005" pbc="T T T"
Si       2.21493022       1.24642862       3.85145099
Si       2.92148134       8.30774884       2.88152561
Si       2.92148151       5.81489072       2.88152477
Si       2.21493038      -1.24642951       3.85145014
Si       2.87787710      10.11602698       1.37309911
Si       2.25853422       3.05470574       5.35987870
Si       2.25853463      -3.05470765       5.35987664
Si       2.87787751       4.00661359       1.37309705
Si       2.98229928       4.98081354       5.30213645
Si       2.15411273      -2.08050506       1.43083790
Si       2.15411245       2.08050580       1.43083930
Si       2.98229900       9.14182440       5.30213785
Si       0.85358103      11.01681630       0.36564197
Si       4.28283017       3.95549465       6.36733645
Si       4.28283070      -3.95549696       6.36733378
Si       0.85358156       3.10582468       0.36563930
16
Lattice="5.293451704032583 8.910581578483452e-08 0.7854565955324128 -9.352396662087207e-07 13.974222409122472 4.717589147768253e-06 -0.20758806420877904 -6.987113171630271 5.785604267922271" Properties=species:S:1:pos:R:3 unique_starting_index=69 config_type=initial n_minim_iter=15 stress="0.014307071083198166 7.331006183367356e-10 -0.0004890936455215391 7.331006183367356e-10 0.005820316276271442 1.1310414056693068e-09 -0.0004890936455215391 1.1310414056693068e-09 0.0023730360661627166" pbc="T T T"
Si       2.18792689       1.24024839       3.75436502
Si       2.89793569       8.22735995       2.81670024
Si       2.89793586       5.74686234       2.81669940
Si       2.18792705      -1.24024923       3.75436418
Si       2.90074238      10.00208076       1.31908482
Si       2.18511997       3.01496818       5.25198163
Si       2.18512037      -3.01497004       5.25197960
Si       2.90074278       3.97214254       1.31908279
Si       2.92595786       4.94367794       5.19869289
Si       2.15990516      -2.04343202       1.37237015
Si       2.15990488       2.04343278       1.37237153
Si       2.92595759       9.03054275       5.19869427
Si       0.87068020      10.87396084       0.33651658
Si       4.21518202       3.88684787       6.23455047
Si       4.21518254      -3.88685012       6.23454784
Si       0.87068072       3.10026285       0.33651396
16
Lattice="5.305153629026245 1.373295975168366e-07 0.6449302091577269 -9.322672209384529e-07 13.929808537186277 4.702595364095257e-06 -0.3650225305062942 -6.964906221352073 5.712004911667078" Properties=species:S:1:pos:R:3 unique_starting_index=69 config_type=initial n_minim_iter=16 stress="0.0207706153449704 -5.752690667567894e-10 0.005008595362914847 -5.752690667567894e-10 0.004101579765451716 8.476762982899944e-09 0.005008595362914847 8.476762982899944e-09 -0.02001496282718467" pbc="T T T"
Si       2.14568600       1.23576127       3.61414408
Si       2.79444407       8.20066588       2.74279543
Si       2.79444424       5.72914257       2.74279460
Si       2.14568617      -1.23576203       3.61414325
Si       2.87200400       9.94172804       1.24084740
Si       2.06812584       2.97682241       5.11609329
Si       2.06812624      -2.97682420       5.11609128
Si       2.87200440       3.98808143       1.24084539
Si       2.77881517       4.91023310       5.07393370
Si       2.16131534      -2.05466993       1.28300359
Si       2.16131507       2.05467074       1.28300498
Si       2.77881490       9.01957377       5.07393509
Si       0.89637000      10.76903380       0.26943390
Si       4.04375973       3.80412777       6.08750735
Si       4.04376024      -3.80412995       6.08750478
Si       0.89637051       3.16077607       0.26943133
16
Lattice="5.299984548611816 2.0314117065877076e-07 0.4489614848907688 -9.203997473791231e-07 13.752486321059925 4.6427327500483165e-06 -0.6053825485008454 -6.876245131164879 5.717306089588174" Properties=species:S:1:pos:R:3 unique_starting_index=69 config_type=initial n_minim_iter=17 stress="0.05189674938686066 -1.360680961962812e-10 0.010935074616540365 -1.360680961962812e-10 -0.0012294596046991473 1.1578842717799908e-08 0.010935074616540365 1.1578842717799908e-08 -0.03335994154635036" pbc="T T T"
Si       2.07873784       1.21870424       3.46902141
Si       2.61586320       8.09494770       2.69725049
Si       2.61586336       5.65753853       2.69724967
Si       2.07873800      -1.21870493       3.46902058
Si       2.80526379       9.77156568       1.15408719
Si       1.88933703       2.89532115       5.01218584
Si       1.88933741      -2.89532291       5.01218388
Si       2.80526418       3.98092161       1.15408524
Si       2.54157258       4.82325931       4.99063983
Si       2.15302890      -2.05298258       1.17562986
Si       2.15302862       2.05298345       1.17563124
Si       2.54157230       8.92922535       4.99064121
Si       0.92986496      10.52269365       0.17592864
Si       3.76473575       3.64644872       5.99034489
Si       3.76473624      -3.64645088       5.99034243
Si       0.92986545       3.22979405       0.17592618
16
Lattice="5.2086040785122405 2.740943309963178e-07 0.22067158505326837 -8.975045152709407e-07 13.410388799301607 4.527243265017657e-06 -0.9022082353675289 -6.705196422632295 5.813520446814125" Properties=species:S:1:pos:R:3 unique_starting_index=69 config_type=initial n_minim_iter=18 stress="0.07508507396789948 9.699615150287322e-10 0.013834880572522358 9.699615150287322e-10 -0.009194652510819176 6.903920283637874e-09 0.013834880572522358 6.903920283637874e-09 -0.02690242494939135" pbc="T T T"
Si       1.97328877       1.18804432       3.33106296
Si       2.33310620       7.89323895       2.70313324
Si       2.33310636       5.51714967       2.70313244
Si       1.97328892      -1.18804496       3.33106216
Si       2.65912153       9.46604382       1.06712680
Si       1.64727323       2.76084804       4.96707046
Si       1.64727360      -2.76084983       4.96706859
Si       2.65912190       3.94434595       1.06712494
Si       2.18444629       4.68910754       4.98599726
Si       2.12194911      -2.01608553       1.04819677
Si       2.12194884       2.01608645       1.04819814
Si       2.18444602       8.72127953       4.98599862
Si       0.95269823      10.10586599       0.06633013
Si       3.35369644       3.40066976       5.96786756
Si       3.35369690      -3.40067200       5.96786526
Si       0.95269868       3.30452423       0.06632784
16
Lattice="5.07893252992194 2.8579686535151427e-07 0.16030010310173343 -8.838313271312874e-07 13.20608580340083 4.45827214929505e-06 -0.9924393408705366 -6.603044961150996 5.903659614356529" Properties=species:S:1:pos:R:3 unique_starting_index=69 config_type=initial n_minim_iter=19 stress="-0.0002932096457488449 1.3610720240712333e-09 0.0004632587492476394 1.3610720240712333e-09 -0.022966956996133592 -1.3181260912709064e-09 0.0004632587492476394 -1.3181260912709064e-09 -0.018970626925559734" pbc="T T T"
Si       1.91878900       1.16881540       3.30146728
Si       2.16770335       7.77185850       2.76249650
Si       2.16770350       5.43422705       2.76249571
Si       1.91878916      -1.16881605       3.30146649
Si       2.53192514       9.28951736       1.05533244
Si       1.55456700       2.68647306       5.00863236
Si       1.55456736      -2.68647491       5.00863055
Si       2.53192550       3.91656939       1.05533063
Si       2.01559301       4.60708737       5.04469462
Si       2.07089976      -1.99595417       1.01926703
Si       2.07089949       1.99595508       1.01926838
Si       2.01559274       8.59899662       5.04469596
Si       0.93335212       9.86576803       0.03780734
Si       3.15313995       3.26272326       6.02615786
Si       3.15314039      -3.26272558       6.02615566
Si       0.93335255       3.34031919       0.03780513
16
Lattice="5.0557087621684165 2.471714987378631e-07 0.2701103538610699 -8.977512014875457e-07 13.41407459866541 4.528487547675093e-06 -0.8644456686913657 -6.707039361195501 5.936179057046818" Properties=species:S:1:pos:R:3 unique_starting_index=69 config_type=initial n_minim_iter=20 stress="-0.046588111740416736 -4.221241251641734e-09 0.005363299075766091 -4.221241251641734e-09 -0.010568757520455047 -3.1577041247711254e-09 0.005363299075766091 -3.1577041247711254e-09 -0.00015190744714260051" pbc="T T T"
Si       1.96205444       1.17963960       3.39297591
Si       2.22920778       7.88667712       2.81331764
Si       2.22920793       5.52739722       2.81331684
Si       1.96205459      -1.17964029       3.39297512
Si       2.53401998       9.44301435       1.10197768
Si       1.65724202       2.73597564       5.10431692
Si       1.65724239      -2.73597752       5.10431507
Si       2.53402035       3.97106118       1.10197583
Si       2.13123635       4.64484756       5.11645896
Si       2.06002629      -2.06218839       1.08983240
Si       2.06002602       2.06218927       1.08983379
Si       2.13123608       8.76922521       5.11646035
Si       0.91860151      10.05596454       0.06700049
Si       3.27266041       3.34892535       6.13929452
Si       3.27266086      -3.34892771       6.13929226
Si       0.91860196       3.35811148       0.06699823
16
Lattice="5.020541669453822 2.3969520824410663e-07 0.2852845558797294 -9.080875773617819e-07 13.568519247666213 4.580626856334051e-06 -0.8511469512497133 -6.784261694385946 5.964556662657816" Properties=species:S:1:pos:R:3 unique_starting_index=69 config_type=initial n_minim_iter=21 stress="-0.03814625255230844 -3.458973211329803e-09 0.004544793209734595 -3.458973211329803e-09 -0.009387858027807854 -5.560766401981922e-09 0.004544793209734595 -5.560766401981922e-09 0.007984965459634275" pbc="T T T"
Si       1.96507732       1.18464319       3.41514582
Si       2.20431650       7.96890303       2.83469958
Si       2.20431666       5.59961596       2.83469878
Si       1.96507748      -1.18464388       3.41514502
Si       2.49716472       9.54071894       1.10457051
Si       1.67222889       2.75645789       5.14527596
Si       1.67222926      -2.75645979       5.14527410
Si       2.49716509       4.02780126       1.10456864
Si       2.12477455       4.65282054       5.14673347
Si       2.04461972      -2.13143772       1.10310970
Si       2.04461943       2.13143861       1.10311114
Si       2.12477426       8.91569687       5.14673491
Si       0.92410191      10.16580380       0.05497265
Si       3.24529162       3.38154226       6.19487424
Si       3.24529208      -3.38154465       6.19487196
Si       0.92410236       3.40271689       0.05497037
