10
Lattice="5.718516841532995 -1.5537690339870114 -2.1416637338356206 -0.6253692952222992 6.05856783579735 -0.4791187119282635 -2.0440432404888855 2.5833858258487385 6.980215637856836" Properties=species:S:1:pos:R:3 unique_starting_index=87 config_type=initial n_minim_iter=1 energy=-1676.5574281433126 free_energy=-1676.5574281433126 pbc="T T T"
Si      -0.94675681       6.37805193       4.62867479
Si       0.25232163       3.64693501       3.99529522
Si       3.18896281       2.65719036      -0.33008928
Si       1.39311000       2.82271654      -0.81728086
Si      -0.00703345       2.14780871       5.07781320
Si       2.25382676       1.26892641      -1.21130870
Si       3.30427606       3.97572182       3.43580554
Si      -0.13364575       5.29710100       3.27309702
Si       0.61852277       5.33323936       4.85140137
Si       4.57971898       3.02109222       2.48104787
10
Lattice="5.718444101780666 -1.5538335859045374 -2.1417178382522506 -0.625267766390686 6.0590408080896845 -0.4790414891811379 -2.04411245325743 2.5836215481377085 6.980044596733422" Properties=species:S:1:pos:R:3 unique_starting_index=87 config_type=initial n_minim_iter=2 stress="0.0001820518661847844 0.0001027127054291042 0.00016427686312360328 0.0001027127054291042 0.0006119230908517594 -6.565690169804557e-05 0.00016427686312360328 -6.565690169804557e-05 0.0005118620913265916" pbc="T T T"
Si      -0.94674254       6.37855978       4.62859566
Si       0.25228774       3.64726796       3.99517761
Si       3.18896645       2.65744470      -0.33012619
Si       1.39313410       2.82295618      -0.81725733
Si      -0.00711140       2.14804439       5.07765390
Si       2.25383285       1.26904253      -1.21129893
Si       3.30420763       3.97611624       3.43565849
Si      -0.13362796       5.29754798       3.27304068
Si       0.61847968       5.33371793       4.85127535
Si       4.57963074       3.02141409       2.48090157
10
Lattice="5.718369154998949 -1.5538432363925256 -2.1417367527577658 -0.6252591003277546 6.058943913718893 -0.47894686885252397 -2.044227744463513 2.58364866113322 6.979718841468034" Properties=species:S:1:pos:R:3 unique_starting_index=87 config_type=initial n_minim_iter=3 stress="-0.0003697041324164223 5.935388921044348e-05 -7.566605700907064e-05 5.935388921044348e-05 -9.955241050785142e-05 -3.147465664653682e-05 -7.566605700907064e-05 -3.147465664653682e-05 -0.0003816295246635563" pbc="T T T"
Si      -0.94682653       6.37848772       4.62841903
Si       0.25218323       3.64725268       3.99496461
Si       3.18892778       2.65738886      -0.33016099
Si       1.39310362       2.82289994      -0.81721297
Si      -0.00724714       2.14808091       5.07737441
Si       2.25381118       1.26898483      -1.21126513
Si       3.30404570       3.97608440       3.43542416
Si      -0.13369414       5.29748974       3.27292010
Si       0.61832424       5.33367886       4.85103967
Si       4.57945600       3.02138326       2.48069151
10
Lattice="5.7187487709863 -1.5540249139026314 -2.1419039700225375 -0.6254018707149119 6.0589314811027855 -0.47873167571814157 -2.044605234149935 2.583895691685251 6.979658139880987" Properties=species:S:1:pos:R:3 unique_starting_index=87 config_type=initial n_minim_iter=4 stress="0.0008322323914057587 -0.000150735210161267 -0.00018633131601445023 -0.000150735210161267 -6.972758246509101e-06 0.0001723714768359403 -0.00018633131601445023 0.0001723714768359403 -0.00019668394868942337" pbc="T T T"
Si      -0.94709313       6.37861206       4.62852353
Si       0.25198864       3.64740944       3.99485416
Si       3.18922346       2.65729143      -0.33015225
Si       1.39310630       2.82282471      -0.81710147
Si      -0.00756050       2.14826843       5.07723755
Si       2.25395806       1.26881212      -1.21122696
Si       3.30396183       3.97615420       3.43531880
Si      -0.13383753       5.29755995       3.27303614
Si       0.61799006       5.33381338       4.85102644
Si       4.57946916       3.02137092       2.48056721
10
Lattice="5.718160225516086 -1.5540069038276965 -2.1419271506142534 -0.6253069450460333 6.058949580559462 -0.4787193339678656 -2.0443976978185905 2.5839098691275377 6.979694110841509" Properties=species:S:1:pos:R:3 unique_starting_index=87 config_type=initial n_minim_iter=5 stress="-0.00012211390365294693 0.0001600334714456309 1.5789890535072517e-05 0.0001600334714456309 -2.896637640910771e-05 -4.474453931840844e-05 1.5789890535072517e-05 -4.474453931840844e-05 7.562007343536048e-05" pbc="T T T"
Si      -0.94689031       6.37864654       4.62857388
Si       0.25196112       3.64752124       3.99473568
Si       3.18913383       2.65728124      -0.33013743
Si       1.39298363       2.82279105      -0.81701200
Si      -0.00772681       2.14828317       5.07717804
Si       2.25377526       1.26875158      -1.21116099
Si       3.30359688       3.97624435       3.43528991
Si      -0.13369126       5.29756672       3.27311751
Si       0.61780474       5.33386073       4.85105211
Si       4.57890288       3.02142947       2.48058947
10
Lattice="5.718038005254832 -1.5543657760525105 -2.1419487735436045 -0.6255869302757531 6.059094220226886 -0.47859717563006393 -2.044504349574555 2.5841878511158494 6.979594377613034" Properties=species:S:1:pos:R:3 unique_starting_index=87 config_type=initial n_minim_iter=6 stress="-6.937067982006893e-05 -0.00018312349812951356 -3.8237737018754545e-05 -0.00018312349812951356 7.500866735772401e-05 0.0001893440039875719 -3.8237737018754545e-05 0.0001893440039875719 -0.00010621665811055069" pbc="T T T"
Si      -0.94717062       6.37894751       4.62859711
Si       0.25170578       3.64769526       3.99462102
Si       3.18902675       2.65709459      -0.33017002
Si       1.39289775       2.82266750      -0.81682128
Si      -0.00805816       2.14845648       5.07695736
Si       2.25368570       1.26863880      -1.21105459
Si       3.30316111       3.97629030       3.43521125
Si      -0.13387038       5.29774664       3.27315099
Si       0.61740788       5.33399890       4.85112066
Si       4.57846448       3.02128168       2.48056021
10
Lattice="5.717986840271428 -1.5541974815330606 -2.141897754556456 -0.625493234666572 6.059056661197488 -0.47879936360099845 -2.044427477674021 2.5839140872677793 6.979580128130998" Properties=species:S:1:pos:R:3 unique_starting_index=87 config_type=initial n_minim_iter=7 stress="4.525240526775179e-05 -2.975557417336132e-05 0.00010711809649855867 -2.975557417336132e-05 1.5287653815918673e-05 -0.0001680653650897599 0.00010711809649855867 -0.0001680653650897599 -8.864688508810162e-05" pbc="T T T"
Si      -0.94704207       6.37873841       4.62845045
Si       0.25174561       3.64756746       3.99453131
Si       3.18914279       2.65709168      -0.33026513
Si       1.39297263       2.82262523      -0.81684814
Si      -0.00810450       2.14836775       5.07686309
Si       2.25370091       1.26867506      -1.21109250
Si       3.30321769       3.97623543       3.43511333
Si      -0.13371999       5.29762761       3.27300585
Si       0.61750769       5.33379648       4.85105804
Si       4.57846170       3.02124304       2.48053040
10
Lattice="5.717893544392562 -1.5540689438682047 -2.14225746624825 -0.6252840728532844 6.0589295717178615 -0.47862000775657837 -2.044568893070776 2.5840189080916707 6.980054781686463" Properties=species:S:1:pos:R:3 unique_starting_index=87 config_type=initial n_minim_iter=8 stress="-6.672332551394771e-05 9.446993229577703e-05 -9.99316727337708e-06 9.446993229577703e-05 -7.266017752874138e-05 0.00016540492164056014 -9.99316727337708e-06 0.00016540492164056014 0.00013544377195446905" pbc="T T T"
Si      -0.94701095       6.37877318       4.62893479
Si       0.25162692       3.64767231       3.99481630
Si       3.18928673       2.65706588      -0.33032441
Si       1.39304098       2.82250298      -0.81679714
Si      -0.00840689       2.14853136       5.07701512
Si       2.25372874       1.26867470      -1.21121854
Si       3.30318047       3.97642715       3.43526344
Si      -0.13362472       5.29769718       3.27328832
Si       0.61750923       5.33383742       4.85148258
Si       4.57833818       3.02138367       2.48058360
10
Lattice="5.7179851384154725 -1.5540804521032314 -2.1422954964800756 -0.625342724649085 6.05901653856267 -0.478788916231964 -2.044747975619057 2.583852250782297 6.979922768418575" Properties=species:S:1:pos:R:3 unique_starting_index=87 config_type=initial n_minim_iter=9 stress="3.878660057284812e-05 6.054375178476059e-06 -0.00018622474687656767 6.054375178476059e-06 2.312229051564157e-06 -0.0001486665299454496 -0.00018622474687656767 -0.0001486665299454496 1.6947160940924767e-05" pbc="T T T"
Si      -0.94718364       6.37872102       4.62874275
Si       0.25146313       3.64765126       3.99463945
Si       3.18935434       2.65700247      -0.33045899
Si       1.39302960       2.82248515      -0.81688313
Si      -0.00867264       2.14837878       5.07680092
Si       2.25375834       1.26868021      -1.21132144
Si       3.30312642       3.97637122       3.43503131
Si      -0.13372698       5.29771694       3.27308329
Si       0.61740339       5.33371019       4.85127742
Si       4.57829807       3.02130127       2.48037049
10
Lattice="5.71789478289249 -1.554200007237626 -2.142069674124324 -0.6254364645389371 6.059090326005735 -0.4787304003905657 -2.0445260507836664 2.5839909482656123 6.979736677000485" Properties=species:S:1:pos:R:3 unique_starting_index=87 config_type=initial n_minim_iter=10 stress="1.396571542162928e-05 -3.503610232156964e-05 0.00017951671281912445 -3.503610232156964e-05 4.11283603949251e-05 1.1139691585693369e-05 0.00017951671281912445 1.1139691585693369e-05 -0.00013475666335929104" pbc="T T T"
Si      -0.94710403       6.37882985       4.62876615
Si       0.25149542       3.64780515       3.99460863
Si       3.18935052       2.65689709      -0.33026994
Si       1.39299211       2.82242981      -0.81677280
Si      -0.00869641       2.14846445       5.07661203
Si       2.25369571       1.26860736      -1.21126274
Si       3.30320987       3.97646436       3.43512234
Si      -0.13368136       5.29790703       3.27309795
Si       0.61754401       5.33379655       4.85128543
Si       4.57834834       3.02134608       2.48049882
10
Lattice="5.717890648898422 -1.554213716087018 -2.142361834281653 -0.6254072770499581 6.059078400534413 -0.47867160035760453 -2.0447503424376077 2.5840463675567147 6.980062396530418" Properties=species:S:1:pos:R:3 unique_starting_index=87 config_type=initial n_minim_iter=11 stress="-8.999956852895322e-05 -7.85380155387572e-05 -4.137152958685199e-05 -7.85380155387572e-05 7.002379382747981e-07 -2.2025517364614156e-05 -4.137152958685199e-05 -2.2025517364614156e-05 9.643417651489219e-05" pbc="T T T"
Si      -0.94721647       6.37881711       4.62911112
Si       0.25129301       3.64791090       3.99473590
Si       3.18932423       2.65675311      -0.33031646
Si       1.39311105       2.82234562      -0.81680472
Si      -0.00909750       2.14852001       5.07666964
Si       2.25373244       1.26851072      -1.21145033
Si       3.30305186       3.97653936       3.43517654
Si      -0.13380841       5.29806089       3.27330945
Si       0.61741673       5.33383355       4.85146228
Si       4.57823131       3.02143429       2.48040852
10
Lattice="5.718016137261671 -1.5540387405828768 -2.1423873656171613 -0.6251931939827561 6.059082534607513 -0.47856702871348045 -2.044766201556868 2.5840883486983284 6.979981510346032" Properties=species:S:1:pos:R:3 unique_starting_index=87 config_type=initial n_minim_iter=12 stress="8.632661796470629e-05 0.00012516307201259271 -1.1762593014804419e-05 0.00012516307201259271 -3.265185892576338e-05 4.420225913013199e-06 -1.1762593014804419e-05 4.420225913013199e-06 -7.061014934929822e-05" pbc="T T T"
Si      -0.94697395       6.37892083       4.62919744
Si       0.25138694       3.64802484       3.99467269
Si       3.18951484       2.65675572      -0.33025831
Si       1.39332971       2.82235056      -0.81676414
Si      -0.00920982       2.14860161       5.07649709
Si       2.25389211       1.26852409      -1.21147697
Si       3.30330238       3.97672450       3.43516486
Si      -0.13366701       5.29825390       3.27338343
Si       0.61765096       5.33398157       4.85146448
Si       4.57842323       3.02172535       2.48036493
10
Lattice="5.717974114598088 -1.554236838923105 -2.142448781905538 -0.6253302691069826 6.059234318736237 -0.47850876421169686 -2.044808472634053 2.5842740554703587 6.980132931848707" Properties=species:S:1:pos:R:3 unique_starting_index=87 config_type=initial n_minim_iter=13 stress="-1.2471508546194554e-05 -4.15457491831575e-05 -6.6911088869233324e-06 -4.15457491831575e-05 3.300178640804972e-05 -1.48222227615913e-05 -6.6911088869233324e-06 -1.48222227615913e-05 1.4273212058363796e-05" pbc="T T T"
Si      -0.94706453       6.37920264       4.62940749
Si       0.25128480       3.64815603       3.99472179
Si       3.18939878       2.65657493      -0.33019513
Si       1.39325017       2.82232597      -0.81676971
Si      -0.00938817       2.14876642       5.07651656
Si       2.25389106       1.26841888      -1.21153565
Si       3.30320779       3.97674482       3.43530709
Si      -0.13384478       5.29853968       3.27355993
Si       0.61754786       5.33415426       4.85163338
Si       4.57823872       3.02175913       2.48041612
10
Lattice="5.717932771278639 -1.5541665927503565 -2.1424618520110146 -0.6252135339979916 6.059212435626831 -0.4783949065583055 -2.0447248174638792 2.5843708137165704 6.980204509466302" Properties=species:S:1:pos:R:3 unique_starting_index=87 config_type=initial n_minim_iter=14 stress="6.625000373590963e-07 9.259154839286316e-06 1.1949271530541783e-05 9.259154839286316e-06 5.674602138359808e-06 -1.663313486047955e-05 1.1949271530541783e-05 -1.663313486047955e-05 6.82806712368473e-06" pbc="T T T"
Si      -0.94686382       6.37932792       4.62958105
Si       0.25136759       3.64832264       3.99472352
Si       3.18946034       2.65646824      -0.33009671
Si       1.39330303       2.82225804      -0.81674372
Si      -0.00937914       2.14893124       5.07653491
Si       2.25394857       1.26844186      -1.21156100
Si       3.30329188       3.97683856       3.43548041
Si      -0.13378288       5.29870164       3.27375221
Si       0.61767635       5.33423883       4.85181720
Si       4.57833365       3.02189520       2.48046974
10
Lattice="5.717964625446871 -1.5542391381049279 -2.1425834404683473 -0.6252102284697986 6.059195586162137 -0.4781865315675942 -2.044819079561446 2.5846004424070435 6.980300420063739" Properties=species:S:1:pos:R:3 unique_starting_index=87 config_type=initial n_minim_iter=15 stress="1.973568697261619e-05 -6.340801056557744e-06 -5.712036105036034e-06 -6.340801056557744e-06 -1.3034009836390099e-05 -4.967025693462925e-06 -5.712036105036034e-06 -4.967025693462925e-06 2.3270289326546698e-05" pbc="T T T"
Si      -0.94697797       6.37949909       4.62981679
Si       0.25133723       3.64853485       3.99476266
Si       3.18948286       2.65634785      -0.33001868
Si       1.39332496       2.82214167      -0.81665004
Si      -0.00942315       2.14912250       5.07657471
Si       2.25397796       1.26840689      -1.21158935
Si       3.30324131       3.97689330       3.43555011
Si      -0.13385570       5.29889655       3.27394747
Si       0.61761855       5.33437695       4.85197567
Si       4.57828582       3.02202359       2.48053977
10
Lattice="5.717882412784616 -1.5543035371151614 -2.142634026844213 -0.6251682331568379 6.059238371372454 -0.4779585834635164 -2.044823491633181 2.5848636313580156 6.980261786415629" Properties=species:S:1:pos:R:3 unique_starting_index=87 config_type=initial n_minim_iter=16 stress="-7.857121009885419e-06 -8.951364648434982e-06 -1.3142361937029365e-06 -8.951364648434982e-06 3.980176058530056e-06 6.92178537629153e-06 -1.3142361937029365e-06 6.92178537629153e-06 -9.386750564926918e-06" pbc="T T T"
Si      -0.94702404       6.37979066       4.62996654
Si       0.25133295       3.64879435       3.99477474
Si       3.18948024       2.65627877      -0.32990761
Si       1.39333145       2.82205666      -0.81649596
Si      -0.00939825       2.14933449       5.07652683
Si       2.25396788       1.26832579      -1.21158434
Si       3.30314756       3.97702009       3.43559032
Si      -0.13387995       5.29918594       3.27407830
Si       0.61760631       5.33462473       4.85204975
Si       4.57821642       3.02217409       2.48057443
10
Lattice="5.717793202809978 -1.5543110706364272 -2.1427215767795746 -0.6250497192670035 6.059170693099764 -0.47761735975680697 -2.0448134078596145 2.5851889756708357 6.98026196603519" Properties=species:S:1:pos:R:3 unique_starting_index=87 config_type=initial n_minim_iter=17 stress="-4.912098410591147e-06 -7.216271206607539e-06 -2.21457268935948e-06 -7.216271206607539e-06 -1.7215574210868128e-05 -1.419367127074782e-05 -2.21457268935948e-06 -1.419367127074782e-05 -1.3786575046500231e-05" pbc="T T T"
Si      -0.94704494       6.38000734       4.63023931
Si       0.25136387       3.64913430       3.99485748
Si       3.18955212       2.65606476      -0.32977288
Si       1.39332851       2.82184065      -0.81626587
Si      -0.00928159       2.14958160       5.07646663
Si       2.25405153       1.26821229      -1.21149250
Si       3.30306440       3.97715534       3.43569735
Si      -0.13387737       5.29962140       3.27425595
Si       0.61762608       5.33497406       4.85221903
Si       4.57819185       3.02241818       2.48062324
10
Lattice="5.717780387907786 -1.5543309023363052 -2.1427760884222433 -0.6250047885752633 6.059138932766237 -0.47743418195974036 -2.044798400685931 2.5853800478101787 6.98035277326035" Properties=species:S:1:pos:R:3 unique_starting_index=87 config_type=initial n_minim_iter=18 stress="-8.215109307623315e-06 -5.782435266135713e-06 -8.75795774675352e-07 -5.782435266135713e-06 -2.0050869030783417e-05 1.847237925942609e-06 -8.75795774675352e-07 1.847237925942609e-06 9.073793310150367e-06" pbc="T T T"
Si      -0.94703541       6.38013148       4.63045750
Si       0.25140452       3.64932651       3.99496579
Si       3.18957240       2.65601751      -0.32971061
Si       1.39334695       2.82175842      -0.81618086
Si      -0.00923717       2.14972440       5.07655073
Si       2.25410077       1.26812379      -1.21145129
Si       3.30308477       3.97725625       3.43583131
Si      -0.13385536       5.29980509       3.27437602
Si       0.61763883       5.33512801       4.85242027
Si       4.57819571       3.02253676       2.48070604
10
Lattice="5.7178379622078594 -1.5543530789992603 -2.1427806555922966 -0.6249430408565478 6.059147100820465 -0.4771967077515399 -2.044792154075581 2.5856314745224442 6.980283629527139" Properties=species:S:1:pos:R:3 unique_starting_index=87 config_type=initial n_minim_iter=19 stress="-1.2471063336311256e-06 -4.888088845395371e-06 -3.905348306450974e-06 -4.888088845395371e-06 -4.9204045330274e-06 -5.918978242348434e-06 -3.905348306450974e-06 -5.918978242348434e-06 2.4422808804916154e-06" pbc="T T T"
Si      -0.94700379       6.38036151       4.63057887
Si       0.25149118       3.64960778       3.99505735
Si       3.18962792       2.65599640      -0.32959626
Si       1.39340138       2.82162949      -0.81607224
Si      -0.00918975       2.14993688       5.07651640
Si       2.25422282       1.26804934      -1.21133232
Si       3.30319001       3.97742687       3.43594003
Si      -0.13380198       5.30008997       3.27443157
Si       0.61763771       5.33531552       4.85245679
Si       4.57827315       3.02271314       2.48075994
