20
Lattice="5.546190192887116 1.0523395282406887 5.264413904448465e-14 -0.17823297669356936 5.486587609040224 4.297755898112489e-13 6.84025597095867e-14 -1.0013189804386988e-12 12.811364534330302" Properties=species:S:1:pos:R:3 unique_starting_index=93 config_type=initial n_minim_iter=1 energy=-3256.0929623212423 free_energy=-3256.0929623212423 pbc="T T T"
Si       1.11315013       1.16223552       8.10907982
Si       4.25480710       5.37669162       1.70339755
Si      -0.65987622       0.70238418       9.71039099
Si       6.02783345       5.83654296       3.30470872
Si       2.16594812       0.77015358       2.09636173
Si       3.20200911       5.76877356       8.50204400
Si       2.99736320       2.18344788       3.84156228
Si       2.37059403       4.35547926      10.24724455
Si       0.13688223       2.07520322       6.03855536
Si       5.23107500       4.46372392      -0.36712691
Si       4.30579475       3.05709831       2.13007680
Si       1.06216248       3.48182883       8.53575907
Si       1.50918412       1.85136172      12.78578610
Si       3.85877311       4.68756542       6.38010383
Si       6.12956436       3.37630022       3.55544703
Si      -0.76160713       3.16262692       9.96112930
Si       3.49175777       2.77691500      11.64321774
Si       1.87619946       3.76201214       5.23753547
Si       0.63919740       5.45397725      11.44679714
Si       4.72875983       1.08494989       5.04111487
20
Lattice="5.545480149950972 1.0528602162262382 5.268862638166559e-14 -0.1779622451973996 5.487995733421242 4.2988420142296506e-13 6.839497963477262e-14 -1.0012079925024963e-12 12.809944500105154" Properties=species:S:1:pos:R:3 unique_starting_index=93 config_type=initial n_minim_iter=2 stress="-1.7573486309636992e-05 -5.373760086790986e-07 -9.849715719722396e-17 -5.373760086790986e-07 6.775714156412846e-05 -5.844730735984698e-17 -9.849715719722396e-17 -5.844730735984698e-17 1.0973705338563892e-05" pbc="T T T"
Si       1.11305382       1.16254905       8.10815888
Si       4.25446409       5.37830691       1.70318663
Si      -0.65973869       0.70247397       9.70933960
Si       6.02725660       5.83838199       3.30436735
Si       2.16569515       0.77046837       2.09608374
Si       3.20182277       5.77038758       8.50105599
Si       2.99705220       2.18416235       3.84114152
Si       2.37046572       4.35669360      10.24611377
Si       0.13699181       2.07578363       6.03791417
Si       5.23052611       4.46507232      -0.36705808
Si       4.30536804       3.05807260       2.12983619
Si       1.06214988       3.48278336       8.53480844
Si       1.50903589       1.85189930      12.78436053
Si       3.85848203       4.68895665       6.37938828
Si       6.12892045       3.37744591       3.55503956
Si      -0.76140253       3.16341004       9.96001181
Si       3.49139152       2.77783436      11.64196097
Si       1.87612640       3.76302159       5.23698872
Si       0.63933028       5.45544917      11.44553045
Si       4.72818763       1.08540679       5.04055820
20
Lattice="5.545275382977909 1.053030257787939 5.2703009893886186e-14 -0.17767572127870598 5.487406881649853 4.298366477515651e-13 6.838272287850434e-14 -1.0010285282241828e-12 12.807648345875723" Properties=species:S:1:pos:R:3 unique_starting_index=93 config_type=initial n_minim_iter=3 stress="-0.00020077209512009704 2.9086552393145842e-05 -1.2705532532852834e-16 2.9086552393145842e-05 -0.00014823708604632196 -1.0206895772910187e-16 -1.2705532532852834e-16 -1.0206895772910187e-16 -0.00021218871172123962" pbc="T T T"
Si       1.11307410       1.16240677       8.10663634
Si       4.25452557       5.37803037       1.70281217
Si      -0.65964020       0.70215111       9.70767921
Si       6.02723988       5.83828603       3.30385504
Si       2.16565910       0.77057267       2.09555066
Si       3.20194057       5.76986448       8.49937483
Si       2.99702482       2.18413902       3.84046609
Si       2.37057485       4.35629812      10.24429027
Si       0.13721926       2.07571070       6.03691972
Si       5.23038041       4.46472644      -0.36690445
Si       4.30539834       3.05798634       2.12941296
Si       1.06220133       3.48245081       8.53323713
Si       1.50895161       1.85173291      12.78201304
Si       3.85864806       4.68870423       6.37818886
Si       6.12897297       3.37743663       3.55437096
Si      -0.76137330       3.16300051       9.95819514
Si       3.49131948       2.77789523      11.63999922
Si       1.87628020       3.76254191       5.23617505
Si       0.63948839       5.45503766      11.44352819
Si       4.72811129       1.08539949       5.03970402
