8
Lattice="5.740279999999999 -6.920958916789188e-16 -3.1185507707858696e-16 1.7292080974298842 5.47363259948847 3.0780218489451213e-17 1.729208097429884 1.2671617773443404 5.324937076080848" Properties=species:S:1:pos:R:3 unique_starting_index=42 config_type=initial n_minim_iter=1 pbc="T T T"
Si       6.19510363       5.59030929       1.50534746
Si       7.19684798       2.44215922       3.76007652
Si       4.49670227       5.07631724       5.08995186
Si       6.70398863       5.93012566       3.11427773
Si       7.67417627       4.09601938       3.76008292
Si       6.21752823       5.06635607       5.04806484
Si       6.02937465       4.41831906       3.49028166
Si       1.49843357       1.09805046       0.86741255
8
Lattice="5.7466458843511 -0.00048135178208692715 -0.0003802471649153481 1.7306667712160024 5.479847778801684 -0.0003802471649154972 1.730666771216002 1.2682306918781843 5.331071443490871" Properties=species:S:1:pos:R:3 unique_starting_index=42 config_type=initial n_minim_iter=2 pbc="T T T"
Si       6.20128599       5.59611273       1.50602815
Si       7.20424422       2.44378145       3.76395323
Si       4.50047719       5.08160821       5.09544006
Si       6.71101653       5.93669744       3.11743172
Si       7.68255987       4.10018079       3.76394624
Si       6.22402181       5.07167490       5.05372794
Si       6.03507031       4.42249284       3.49357876
Si       1.49991431       1.09913554       0.86826972
8
Lattice="6.4810070619377225 -0.03368769815029101 -0.02661182983192908 1.9202226734942927 6.19009953733312 -0.026611829831929945 1.920222673494292 1.4071370469860935 6.028101343091204" Properties=species:S:1:pos:R:3 unique_starting_index=42 config_type=initial n_minim_iter=3 pbc="T T T"
Si       6.94029797       6.27855761       1.60897799
Si       8.07760894       2.65947835       4.22566450
Si       4.96924787       5.70852892       5.73551261
Si       7.55539980       6.71352894       3.50732222
Si       8.67766892       4.61170166       4.22931626
Si       7.01154924       5.70839969       5.71919542
Si       6.71889051       4.92359553       3.88942829
Si       1.67755233       1.22930849       0.97110074
8
Lattice="6.335322464000247 0.03741894649391121 0.029559355232392896 1.9441400889758451 6.02976203633774 0.029559355232392545 1.9441400889758444 1.424663702543706 5.8591157442907775" Properties=species:S:1:pos:R:3 unique_starting_index=42 config_type=initial n_minim_iter=4 pbc="T T T"
Si       6.86153717       6.17220160       1.64807553
Si       7.95246738       2.68754448       4.17471975
Si       4.95831249       5.62938595       5.62299465
Si       7.50272282       6.62606873       3.51851248
Si       8.57840295       4.61705884       4.20349107
Si       6.98675459       5.66098959       5.63152057
Si       6.64253637       4.86764329       3.84522844
Si       1.65603435       1.21354014       0.95864442
8
Lattice="6.136488433728812 0.08039216608791602 0.0635063468631026 1.9252201409044505 5.827218942747184 0.06350634686310289 1.9252201409044505 1.4107991855656485 5.654216065982165" Properties=species:S:1:pos:R:3 unique_starting_index=42 config_type=initial n_minim_iter=5 pbc="T T T"
Si       6.68421606       5.99041751       1.63119831
Si       7.72571113       2.64465956       4.06740920
Si       4.84911136       5.47792505       5.45005599
Si       7.35970776       6.47110435       3.48257569
Si       8.38755496       4.56133479       4.12455695
Si       6.87612777       5.54595634       5.48908538
Si       6.46630770       4.73850312       3.74321327
Si       1.60618127       1.17700786       0.92978549
8
Lattice="6.152898711575609 0.05566191258202136 0.04397051229633277 1.9065821064445068 5.85031669867595 0.043970512296333454 1.906582106444507 1.3971412545696222 5.681208955454633" Properties=species:S:1:pos:R:3 unique_starting_index=42 config_type=initial n_minim_iter=6 pbc="T T T"
Si       6.66052315       5.98046498       1.58597597
Si       7.70908364       2.59612960       4.05881637
Si       4.79782683       5.46927955       5.45084293
Si       7.36485223       6.48866879       3.47883636
Si       8.40585322       4.55760776       4.12504746
Si       6.87808606       5.55073277       5.50703834
Si       6.44134991       4.72021408       3.72876571
Si       1.59297165       1.16732786       0.92213871
8
Lattice="6.122098899667869 0.025448555330805686 0.02010326205460936 1.8684940512729082 5.830049103278692 0.020103262054609355 1.8684940512729085 1.3692303699522268 5.667017282644056" Properties=species:S:1:pos:R:3 unique_starting_index=42 config_type=initial n_minim_iter=7 pbc="T T T"
Si       6.58548222       5.92629055       1.53042370
Si       7.63482030       2.52929925       4.01794184
Si       4.71172972       5.41778246       5.41100070
Si       7.29791994       6.44897849       3.43526266
Si       8.34784386       4.50321047       4.08467710
Si       6.80874083       5.50244716       5.47851369
Si       6.35887279       4.65977494       3.68102140
Si       1.57004024       1.15052376       0.90886419
8
Lattice="6.1145717782655815 -0.0005793307459681448 -0.0004576463241659565 1.841407734054101 5.83071229989542 -0.00045764632416574105 1.8414077340541013 1.3493815467135948 5.672422372759343" Properties=species:S:1:pos:R:3 unique_starting_index=42 config_type=initial n_minim_iter=8 pbc="T T T"
Si       6.54041490       5.89735038       1.48360182
Si       7.59364834       2.47581899       3.99545594
Si       4.64833104       5.39054835       5.39368612
Si       7.26581594       6.44006056       3.40890145
Si       8.32966914       4.47110037       4.06361218
Si       6.77264733       5.48018173       5.47594072
Si       6.30207749       4.61815540       3.64814376
Si       1.55422169       1.13893194       0.89970715
8
Lattice="6.097857244789054 -0.018498814106519167 -0.014613265973201915 1.8192855422933034 5.820172274044149 -0.014613265973202874 1.8192855422933025 1.3331704291089357 5.665445741867461" Properties=species:S:1:pos:R:3 unique_starting_index=42 config_type=initial n_minim_iter=9 pbc="T T T"
Si       6.49525137       5.86460394       1.44315190
Si       7.54881793       2.42878179       3.97252113
Si       4.58997405       5.36162060       5.37119354
Si       7.23618702       6.43114671       3.38566567
Si       8.31224391       4.44257689       4.04411851
Si       6.74019963       5.45936019       5.47264817
Si       6.24073952       4.57320701       3.61263647
Si       1.53849409       1.12740677       0.89060276
8
Lattice="6.082767267023657 -0.012488691740821985 -0.009865528299008417 1.8204707614752649 5.8039727599989215 -0.009865528299008792 1.8204707614752647 1.3340389564119188 5.648587185326391" Properties=species:S:1:pos:R:3 unique_starting_index=42 config_type=initial n_minim_iter=10 pbc="T T T"
Si       6.47971162       5.84801804       1.43062192
Si       7.52832126       2.41431848       3.96586711
Si       4.57000815       5.35163137       5.35795893
Si       7.24515411       6.44609700       3.38796880
Si       8.32920098       4.44575432       4.04752229
Si       6.74833763       5.46619318       5.48665915
Si       6.20634682       4.54800408       3.59272723
Si       1.53120345       1.12206419       0.88638236
8
Lattice="6.036932000587218 0.012667018112979973 0.010006398448381892 1.8306504739020621 5.752688699683307 0.010006398448381651 1.830650473902062 1.3414986383962721 5.594095888224911" Properties=species:S:1:pos:R:3 unique_starting_index=42 config_type=initial n_minim_iter=11 pbc="T T T"
Si       6.45358916       5.81363921       1.43357988
Si       7.48767024       2.41382709       3.95102498
Si       4.55729383       5.32825302       5.32382925
Si       7.24644715       6.44527354       3.39237617
Si       8.32880529       4.45038482       4.04794278
Si       6.75263384       5.46619197       5.48483774
Si       6.16188439       4.51542205       3.56698884
Si       1.52252919       1.11570771       0.88136101
8
Lattice="6.0085659324334335 0.06398173858217762 0.05054281630949818 1.8710364989827328 5.710182190328616 0.05054281630949744 1.871036498982732 1.3710934728162347 5.543359803569249" Properties=species:S:1:pos:R:3 unique_starting_index=42 config_type=initial n_minim_iter=12 pbc="T T T"
Si       6.47621631       5.81237043       1.47090526
Si       7.49327662       2.45522191       3.96374581
Si       4.59845465       5.33897908       5.31395400
Si       7.30779791       6.48635280       3.43268579
Si       8.38645770       4.50027774       4.08348407
Si       6.81757640       5.51001503       5.51546925
Si       6.16629232       4.51865219       3.56954050
Si       1.52691747       1.11892344       0.88390130
8
Lattice="5.945082278038386 0.1271669065690367 0.10045637617537616 1.91216270642604 5.630613509993904 0.10045637617537623 1.9121627064260394 1.4012307120512053 5.454397535387811" Properties=species:S:1:pos:R:3 unique_starting_index=42 config_type=initial n_minim_iter=13 pbc="T T T"
Si       6.47535277       5.78523342       1.51465884
Si       7.46714004       2.49948874       3.96076838
Si       4.63279179       5.32722582       5.27742511
Si       7.34354580       6.49908171       3.46384751
Si       8.40936406       4.53759655       4.10570106
Si       6.86006202       5.53408249       5.52063834
Si       6.15163885       4.50791413       3.56105790
Si       1.52697596       1.11896629       0.88393515
8
Lattice="5.978112189972133 0.19273819108212006 0.15225486527185253 1.984638040673564 5.642356352952765 0.15225486527185253 1.9846380406735635 1.4543405566645962 5.4538298747711105" Properties=species:S:1:pos:R:3 unique_starting_index=42 config_type=initial n_minim_iter=14 pbc="T T T"
Si       6.58122542       5.85365085       1.58273411
Si       7.56427254       2.58431469       4.02317064
Si       4.74293770       5.40345919       5.32822431
Si       7.49574915       6.61647212       3.55090080
Si       8.56715136       4.64769713       4.19233636
Si       7.01258022       5.64551747       5.61468666
Si       6.23993713       4.57261902       3.61217197
Si       1.55328200       1.13824333       0.89916318
8
Lattice="5.9100949553395985 0.20643989150232986 0.1630786181552943 1.977213685275765 5.573371138968974 0.16307861815529323 1.9772136852757634 1.4488999972573777 5.38421296814486" Properties=species:S:1:pos:R:3 unique_starting_index=42 config_type=initial n_minim_iter=15 pbc="T T T"
Si       6.52302057       5.79574811       1.57588428
Si       7.49152581       2.56884030       3.98773185
Si       4.70626782       5.35400350       5.27348030
Si       7.43964208       6.56516975       3.52588702
Si       8.50133032       4.61455501       4.16111427
Si       6.96114962       5.60292489       5.57056872
Si       6.17977242       4.52853038       3.57734385
Si       1.53992892       1.12845821       0.89143336
8
Lattice="5.912296570225332 0.22897347241624122 0.18087917603579337 1.9993637534538728 5.5686824444156855 0.18087917603579212 1.999363753453871 1.4651315426697469 5.375530765025994" Properties=species:S:1:pos:R:3 unique_starting_index=42 config_type=initial n_minim_iter=16 pbc="T T T"
Si       6.54990942       5.81095547       1.59574906
Si       7.51412678       2.59304059       4.00361975
Si       4.73615231       5.37276125       5.28367578
Si       7.48059069       6.59664018       3.54976348
Si       8.54367430       4.64462753       4.18434990
Si       7.00258096       5.63277950       5.59565676
Si       6.20108445       4.54414782       3.58968095
Si       1.54712182       1.13372916       0.89559718
8
Lattice="5.890030210344453 0.2613747403764069 0.2064747814537696 2.0235523760934 5.537689808474643 0.20647478145376683 2.0235523760933973 1.4828569385321484 5.33945461167218" Properties=species:S:1:pos:R:3 unique_starting_index=42 config_type=initial n_minim_iter=17 pbc="T T T"
Si       6.56136585       5.80857194       1.61643448
Si       7.51530512       2.61585930       4.01015702
Si       4.75826600       5.37778971       5.27656827
Si       7.50953350       6.61662790       3.56898942
Si       8.57145231       4.66832637       4.20089011
Si       7.03354682       5.65334964       5.61065064
Si       6.20501847       4.54703066       3.59195828
Si       1.55136008       1.13683495       0.89805062
8
Lattice="5.858197676290891 0.3732700739979917 0.29486727309983124 2.120660682690746 5.473628488629101 0.2948672730998285 2.120660682690743 1.554017797983179 5.2566704503734" Properties=species:S:1:pos:R:3 unique_starting_index=42 config_type=initial n_minim_iter=18 pbc="T T T"
Si       6.64906638       5.84505409       1.69449606
Si       7.57651160       2.70861589       4.06274905
Si       4.86515178       5.43599563       5.29398787
Si       7.66293035       6.73647632       3.65812694
Si       8.73194297       4.78054662       4.28742971
Si       7.18890059       5.76514046       5.70660769
Si       6.26382830       4.59012644       3.62600209
Si       1.57976625       1.15765096       0.91449437
8
Lattice="5.71326036859523 0.437450170339674 0.3455667834914878 2.1381984163007983 5.316090125592293 0.3455667834914868 2.138198416300796 1.5668694297358499 5.091674657264713" Properties=species:S:1:pos:R:3 unique_starting_index=42 config_type=initial n_minim_iter=19 pbc="T T T"
Si       6.56601182       5.74936205       1.70887508
Si       7.46024520       2.71094346       4.01041847
Si       4.83234701       5.35925863       5.19756660
Si       7.59377986       6.66469524       3.63216193
Si       8.64266529       4.74502794       4.25032962
Si       7.12813772       5.71181726       5.64278757
Si       6.17564394       4.52550504       3.57495396
Si       1.56973514       1.15030017       0.90868757
8
Lattice="5.838950871032842 0.4679057571556356 0.36962538465094286 2.20510242227569 5.426767581091758 0.3696253846509409 2.2051024222756874 1.6158966111656656 5.193775837114084" Properties=species:S:1:pos:R:3 unique_starting_index=42 config_type=initial n_minim_iter=20 pbc="T T T"
Si       6.73298965       5.89106908       1.76491784
Si       7.64567024       2.79244160       4.11081209
Si       4.96591703       5.49217386       5.32244998
Si       7.79366779       6.83780917       3.73091142
Si       8.86795220       4.87314726       4.36216135
Si       7.31817131       5.86140807       5.78833794
Si       6.32895749       4.63785304       3.66370404
Si       1.61325964       1.18219488       0.93388301
8
Lattice="5.815913591642963 0.47555038378577574 0.3756643102582175 2.2054521660982775 5.402497553542121 0.3756643102582154 2.205452166098275 1.6161529030512414 5.168767095158126" Properties=species:S:1:pos:R:3 unique_starting_index=42 config_type=initial n_minim_iter=21 pbc="T T T"
Si       6.71669367       5.87503622       1.76456922
Si       7.62547312       2.78962323       4.10047448
Si       4.95714538       5.47785514       5.30693337
Si       7.77851697       6.82364704       3.72375115
Si       8.84988388       4.86382461       4.35391472
Si       7.30383880       5.85004704       5.77621816
Si       6.31181058       4.62528780       3.65377805
Si       1.61148865       1.18089710       0.93285782
8
Lattice="5.814215381309985 0.4870588880873152 0.3847555327194928 2.2159145068303205 5.397411394283879 0.3847555327194916 2.2159145068303183 1.6238196947444468 5.1617144611130605" Properties=species:S:1:pos:R:3 unique_starting_index=42 config_type=initial n_minim_iter=22 pbc="T T T"
Si       6.72725100       5.88226567       1.77264326
Si       7.63554705       2.79930428       4.10628012
Si       4.96941141       5.48505173       5.31209727
Si       7.79521140       6.83721407       3.73215804
Si       8.86784974       4.87474226       4.36347907
Si       7.31966136       5.86255615       5.78747041
Si       6.31939784       4.63084774       3.65817015
Si       1.61669263       1.18471057       0.93587030
8
Lattice="5.783667128386321 0.6878206729372148 0.5433486913064935 2.3981481198192296 5.307804473179454 0.5433486913064911 2.3981481198192265 1.7573602843762683 5.0378270074254425" Properties=species:S:1:pos:R:3 unique_starting_index=42 config_type=initial n_minim_iter=23 pbc="T T T"
Si       6.90702209       6.00963029       1.90974407
Si       7.81114977       2.96348277       4.20397930
Si       5.17886224       5.60741148       5.40426269
Si       8.08908277       7.07760434       3.87751724
Si       9.18559953       5.06426013       4.53198784
Si       7.59609504       6.08341360       5.98767921
Si       6.43892788       4.71843922       3.72736365
Si       1.71455588       1.25642465       0.99252133
8
Lattice="5.961277747282438 0.4658895401822278 0.36803266012695957 2.240029741847354 5.544019498480802 0.3680326601269562 2.2400297418473505 1.6414913122384196 5.308211234521584" Properties=species:S:1:pos:R:3 unique_starting_index=42 config_type=initial n_minim_iter=24 pbc="T T T"
Si       6.83733897       6.08512978       1.65738955
Si       7.86215074       2.69733598       4.17563327
Si       4.94044208       5.60965450       5.53613198
Si       7.96084105       7.11555901       3.70919873
Si       9.18315945       4.86955799       4.44086849
Si       7.40970215       6.00780910       6.06356903
Si       6.32178995       4.63260067       3.65955490
Si       1.71245870       1.25488784       0.99130732
8
Lattice="5.629727833003724 0.47006234019390003 0.37132899231735983 2.144132255610115 5.226613717103812 0.3713289923173565 2.1441322556101112 1.5712177406053434 4.998664919752086" Properties=species:S:1:pos:R:3 unique_starting_index=42 config_type=initial n_minim_iter=25 pbc="T T T"
Si       6.49035363       5.76252325       1.60122424
Si       7.45000369       2.58859772       3.96129909
Si       4.71259931       5.31774498       5.23529174
Si       7.56712325       6.74234006       3.53651240
Si       8.70867330       4.64067757       4.22499051
Si       7.04851895       5.70901492       5.74046626
Si       6.00416845       4.39984799       3.47569031
Si       1.62865563       1.19347705       0.94279544
8
Lattice="5.710376854518952 0.5337661712660937 0.421652273669861 2.2291717149262102 5.284326221155052 0.4216522736698578 2.2291717149262067 1.6335345621443738 5.0431596331821105" Properties=species:S:1:pos:R:3 unique_starting_index=42 config_type=initial n_minim_iter=26 pbc="T T T"
Si       6.64671627       5.87918336       1.69341304
Si       7.60834755       2.70466339       4.05081786
Si       4.87097317       5.43169197       5.32744072
Si       7.76345580       6.88603876       3.65104762
Si       8.90484033       4.78542031       4.33849003
Si       7.24563167       5.85264074       5.85374603
Si       6.15218654       4.50831548       3.56137495
Si       1.67209357       1.22530832       0.96794077
8
Lattice="5.726633641491698 0.5756408694306681 0.45473148070999697 2.273998462164815 5.2872134691627 0.4547314807099938 2.273998462164812 1.6663835528400917 5.038310514732905" Properties=species:S:1:pos:R:3 unique_starting_index=42 config_type=initial n_minim_iter=27 pbc="T T T"
Si       6.70990465       5.92084324       1.74684308
Si       7.66710718       2.76768546       4.08485624
Si       4.94876856       5.47338176       5.35559966
Si       7.84850649       6.93941901       3.70633106
Si       8.98136172       4.85425415       4.38894503
Si       7.33431944       5.91381678       5.89287789
Si       6.21179850       4.55199906       3.59588310
Si       1.69224479       1.24007511       0.97960590
8
Lattice="5.754770830137765 0.6244785237389187 0.49331112304838376 2.3290435873416144 5.299331722234288 0.4933111230483815 2.3290435873416118 1.7067205595640633 5.041168267174102" Properties=species:S:1:pos:R:3 unique_starting_index=42 config_type=initial n_minim_iter=28 pbc="T T T"
Si       6.79221389       5.98099747       1.80997168
Si       7.74926205       2.84307377       4.12896681
Si       5.04540335       5.52917220       5.39950530
Si       7.95921413       7.01342148       3.77477105
Si       9.08527631       4.94011273       4.45411128
Si       7.44749305       5.99416417       5.94902597
Si       6.28566158       4.60612584       3.63864092
Si       1.72090478       1.26107712       0.99619658
8
Lattice="5.751506634660831 0.6290952620938225 0.49695814739926386 2.3324625592928774 5.294828403908237 0.49695814739926286 2.332462559292875 1.7092259784207597 5.03594298833808" Properties=species:S:1:pos:R:3 unique_starting_index=42 config_type=initial n_minim_iter=29 pbc="T T T"
Si       6.79122989       5.98646388       1.81296160
Si       7.75417811       2.84538403       4.12575986
Si       5.04908722       5.52697648       5.40413104
Si       7.96342620       7.01651399       3.77604387
Si       9.08949402       4.94206511       4.45681764
Si       7.45062529       5.99759191       5.95173981
Si       6.27718091       4.59991122       3.63373164
Si       1.72808349       1.26633767       1.00035219
8
Lattice="5.7535447357956615 0.6410601091427934 0.5064098609657959 2.3444855752155984 5.29316752785534 0.5064098609657923 2.3444855752155953 1.7180364311640237 5.0321391322596325" Properties=species:S:1:pos:R:3 unique_starting_index=42 config_type=initial n_minim_iter=30 pbc="T T T"
Si       6.79872236       6.01375136       1.82221063
Si       7.78245507       2.85413278       4.12257223
Si       5.06594775       5.52950743       5.42853605
Si       7.98748818       7.03761603       3.78411886
Si       9.11686429       4.95376079       4.47108509
Si       7.47002273       6.01669810       5.97039921
Si       6.25927824       4.58679216       3.62336815
Si       1.75300012       1.28459655       1.01477592
8
Lattice="5.711315232531516 0.6431098254362172 0.5080290485090054 2.3337188173098147 5.252282210111457 0.5080290485090013 2.333718817309811 1.710146562903283 4.99198964964595" Properties=species:S:1:pos:R:3 unique_starting_index=42 config_type=initial n_minim_iter=31 pbc="T T T"
Si       6.75150205       5.98436673       1.81451610
Si       7.74021072       2.83827266       4.08916128
Si       5.03809863       5.48878477       5.40173099
Si       7.94171294       6.99647723       3.76032673
Si       9.06384709       4.92337909       4.44618595
Si       7.42508136       5.98289062       5.93588592
Si       6.19842728       4.54220065       3.58814277
Si       1.75595414       1.28676125       1.01648594
8
Lattice="5.746481134735707 0.6498716515498016 0.5133705997507967 2.350759957235445 5.283777646610421 0.5133705997507932 2.350759957235443 1.7226342913543757 5.021392903344488" Properties=species:S:1:pos:R:3 unique_starting_index=42 config_type=initial n_minim_iter=32 pbc="T T T"
Si       6.79550560       6.02529105       1.82878275
Si       7.79248971       2.85901151       4.11468496
Si       5.07362270       5.52370933       5.43824080
Si       7.99505255       7.04293399       3.78588748
Si       9.12421391       4.95678033       4.47613423
Si       7.47511602       6.02302192       5.97516326
Si       6.23485229       4.56889285       3.60922847
Si       1.77036293       1.29732000       1.02482689
8
Lattice="5.742788854507615 0.6504331456603751 0.5138141559016373 2.350183102378132 5.280087735040673 0.5138141559016334 2.350183102378129 1.722211572754256 5.017700546585367" Properties=species:S:1:pos:R:3 unique_starting_index=42 config_type=initial n_minim_iter=33 pbc="T T T"
Si       6.79143626       6.02390220       1.82847027
Si       7.78993952       2.85790607       4.11138942
Si       5.07180038       5.52001745       5.43696202
Si       7.99184609       7.04007774       3.78393824
Si       9.12052443       4.95437540       4.47444808
Si       7.47171138       6.02073484       5.97283586
Si       6.22768663       4.56364187       3.60508041
Si       1.77203122       1.29854252       1.02579263
8
Lattice="5.74216772375532 0.6521513989202279 0.5151715019320896 2.351634429270004 5.2789778485918095 0.5151715019320855 2.351634429270001 1.7232751034921392 5.016306581540851" Properties=species:S:1:pos:R:3 unique_starting_index=42 config_type=initial n_minim_iter=34 pbc="T T T"
Si       6.79156173       6.02713490       1.83000075
Si       7.79305985       2.85919723       4.11020413
Si       5.07397153       5.51946313       5.43975258
Si       7.99433027       7.04206620       3.78463065
Si       9.12316886       4.95545871       4.47600949
Si       7.47354098       6.02276204       5.97461000
Si       6.22265128       4.55995197       3.60216555
Si       1.77610366       1.30152680       1.02815009
8
Lattice="5.711500206576018 0.7276918107882159 0.5748451720385002 2.4144275233255006 5.226979023854458 0.5748451720384959 2.4144275233254975 1.7692898132234758 4.95190571845366" Properties=species:S:1:pos:R:3 unique_starting_index=42 config_type=initial n_minim_iter=35 pbc="T T T"
Si       6.79677991       6.16105138       1.89938903
Si       7.92232757       2.91851334       4.05973591
Si       5.16947305       5.49476506       5.55396753
Si       8.09985197       7.12381489       3.81554921
Si       9.23290763       5.00313016       4.54278126
Si       7.55205582       6.10862012       6.04698019
Si       5.99454853       4.39279852       3.47012153
Si       1.95522974       1.43279019       1.13184250
8
Lattice="6.504381034605561 0.8036356576968199 0.6348375384417364 2.7256918979370335 5.96015155773566 0.6348375384417333 2.725691897937031 1.9973840019697309 5.651272638978664" Properties=species:S:1:pos:R:3 unique_starting_index=42 config_type=initial n_minim_iter=36 pbc="T T T"
Si       7.73463875       7.01438255       2.14996638
Si       9.01854141       3.30980531       4.62165058
Si       5.87281336       6.25611513       6.32610791
Si       9.17518371       8.07895862       4.30258564
Si      10.46761713       5.64770442       5.14764395
Si       8.53863353       6.92466085       6.86342636
Si       6.79727377       4.98103469       3.93480276
Si       2.19839385       1.61098058       1.27260523
8
Lattice="5.737942418258387 0.6933870102537816 0.5477458579159414 2.3896817290490677 5.262526957183853 0.5477458579159387 2.389681729049065 1.751156122603054 4.992761533882885" Properties=species:S:1:pos:R:3 unique_starting_index=42 config_type=initial n_minim_iter=37 pbc="T T T"
Si       6.80385638       6.17489467       1.87686619
Si       7.93765954       2.89719906       4.06745757
Si       5.15376748       5.50714789       5.57264887
Si       8.07515402       7.11433771       3.77800458
Si       9.21643064       4.96181434       4.53133940
Si       7.50769565       6.09673310       6.04645215
Si       5.97527551       4.37867528       3.45896478
Si       1.93804131       1.42019453       1.12189248
