12
Lattice="2.747365982772778 3.348058958458031e-29 5.798815301012949e-29 -8.857702496459805e-29 9.295557529319318 4.178009192477482e-13 -8.85770317200847e-29 -4.647778764660017 8.05018896273003" Properties=species:S:1:pos:R:3 unique_starting_index=66 config_type=initial n_minim_iter=14 energy=-1953.238531611033 free_energy=-1953.238531611033 pbc="T T T"
Si       1.37492478      -2.44578269       7.22215017
Si       1.37492478       2.82967811       6.55722382
Si       1.37492478      -0.38389540       2.32100393
Si       1.37244120       7.09356147       0.82803879
Si       1.37244120       1.81810067       1.49296514
Si       1.37244120       5.03167418       5.72918503
Si      -0.00072456      -1.01268817       4.27632485
Si      -0.00072456      -0.43802871       6.78904022
Si      -0.00072456       1.45071690       5.03501285
Si       2.74809054       5.66046695       3.77386411
Si       2.74809054       5.08580749       1.26114874
Si       2.74809054       3.19706187       3.01517611
