16
Lattice="6.54454827998258 0.5319349563532181 1.7608632534065225 2.891859553893289 4.370681054771718 1.0927878396192843 6.666301962468693 1.91651472616154 14.18204183037019" Properties=species:S:1:pos:R:3 unique_starting_index=3 config_type=initial n_minim_iter=1 energy=-2606.5988371329945 free_energy=-2606.5988371329945 pbc="T T T"
Si       8.21316680       4.29050750       9.14864710
Si      10.28608612       3.07896445      15.15688614
Si       2.63065576       2.92639280       4.17000381
Si       6.41220944       3.27900228       3.11763480
Si       9.09351283       1.25447003       6.88932164
Si      10.51981112       3.46243245       9.18979521
Si       4.87310162       3.08241236       5.01185275
Si       8.76327401       3.45135408       3.61690611
Si       6.65375001       2.17826690      10.36341393
Si       8.64679113       1.84131941       9.12631946
Si      11.36217266       4.11388355      11.36327957
Si       4.83032802       0.73339219       5.84407405
Si       7.67648160       5.03155323      11.35631689
Si       7.58053497       2.93759937      12.38445616
Si       9.90871961       2.89620729      12.80043104
Si       5.90427869       1.38595735       1.71377976
16
Lattice="6.545053809615795 0.5316508759082942 1.7609990294385318 2.8919236775321164 4.371106324563235 1.0926304134023341 6.666660747075871 1.915643804397517 14.183669634651158" Properties=species:S:1:pos:R:3 unique_starting_index=3 config_type=initial n_minim_iter=2 stress="0.00014979312597522134 -1.1873787743070373e-06 -4.513711846438454e-06 -1.1873787743070373e-06 0.0001799100139996455 3.8008529229016865e-06 -4.513711846438454e-06 3.8008529229016865e-06 0.00014500945869856652" pbc="T T T"
Si       8.21363667       4.29025326       9.14950163
Si      10.28666941       3.07805468      15.15852811
Si       2.63077602       2.92637737       4.17025936
Si       6.41260775       3.27894560       3.11779561
Si       9.09418207       1.25387399       6.89008436
Si      10.52042191       3.46198794       9.19074389
Si       4.87332823       3.08230819       5.01224110
Si       8.76379425       3.45129304       3.61710917
Si       6.65405027       2.17766972      10.36444440
Si       8.64738324       1.84073933       9.12722324
Si      11.36293210       4.11330550      11.36442317
Si       4.83065932       0.73296144       5.84472257
Si       7.67680316       5.03129809      11.35734267
Si       7.58092247       2.93694418      12.38588182
Si       9.90929533       2.89539690      12.80181536
Si       5.90475655       1.38580102       1.71379319
16
Lattice="6.543225128277798 0.5296349037978906 1.7606658145322351 2.8902675942842464 4.369712653562398 1.0909926173918951 6.66421096056204 1.9089843982209953 14.182985462886279" Properties=species:S:1:pos:R:3 unique_starting_index=3 config_type=initial n_minim_iter=3 stress="-0.00026331693076204696 -8.52423557239995e-05 -2.7064720168533783e-05 -8.52423557239995e-05 6.718910193888326e-05 -0.00022841671093145992 -2.7064720168533783e-05 -0.00022841671093145992 -3.2103336625713125e-05" pbc="T T T"
Si       8.21069807       4.28515030       9.14807529
Si      10.28284994       3.07017321      15.15729617
Si       2.62980115       2.92355300       4.16861720
Si       6.41038443       3.27562033       3.11667831
Si       9.09163550       1.24946444       6.88984302
Si      10.51637258       3.45660877       9.19004748
Si       4.87118040       3.07893127       5.01094313
Si       8.76040601       3.44805432       3.61594920
Si       6.65099446       2.17237947      10.36281485
Si       8.64475036       1.83601573       9.12589977
Si      11.35950251       4.10644040      11.36320122
Si       4.82921273       0.72992731       5.84435389
Si       7.67330972       5.02554397      11.35514826
Si       7.57788238       2.93068075      12.38554237
Si       9.90565363       2.88817130      12.80084075
Si       5.90338334       1.38368254       1.71260238
16
Lattice="6.545665882276276 0.530337309287522 1.7611417862370733 2.8915995564684494 4.36889542484146 1.0923363139704942 6.667350675617117 1.9126768500296323 14.184038959405077" Properties=species:S:1:pos:R:3 unique_starting_index=3 config_type=initial n_minim_iter=4 stress="2.0691376187321764e-05 -4.18142683842941e-05 4.1364854787356645e-05 -4.18142683842941e-05 -0.00012056646771379103 -3.7670558109555644e-05 4.1364854787356645e-05 -3.7670558109555644e-05 3.688811793520027e-05" pbc="T T T"
Si       8.21448200       4.28710969       9.14989575
Si      10.28723193       3.07395081      15.15882609
Si       2.63138084       2.92356252       4.16916817
Si       6.41311097       3.27543651       3.11807069
Si       9.09541089       1.25153160       6.89094648
Si      10.52043424       3.45904892       9.19218947
Si       4.87324048       3.07943027       5.01200331
Si       8.76364229       3.44867490       3.61753423
Si       6.65350667       2.17500037      10.36324934
Si       8.64846298       1.83883536       9.12656371
Si      11.36479816       4.10899522      11.36536473
Si       4.83137171       0.73168448       5.84485807
Si       7.67663122       5.02781940      11.35682552
Si       7.58117157       2.93372457      12.38737392
Si       9.90978517       2.89114919      12.80242409
Si       5.90598002       1.38390157       1.71286388
16
Lattice="6.545196486964433 0.5316098646465479 1.7602148533288795 2.8919076451188728 4.37045485003577 1.0925326684863736 6.665678165543627 1.9162549453346973 14.18131668547667" Properties=species:S:1:pos:R:3 unique_starting_index=3 config_type=initial n_minim_iter=5 stress="-1.687654723570095e-05 2.1021602058891996e-05 -1.4700806426154901e-05 2.1021602058891996e-05 3.6407230837052874e-05 3.084299897022327e-05 -1.4700806426154901e-05 3.084299897022327e-05 -3.234638167532288e-05" pbc="T T T"
Si       8.21366373       4.29078697       9.14820129
Si      10.28538545       3.07841334      15.15574377
Si       2.63123747       2.92514736       4.16855529
Si       6.41289896       3.27737947       3.11744424
Si       9.09439993       1.25406117       6.88907030
Si      10.51924470       3.46287943       9.19030387
Si       4.87282720       3.08148743       5.01111828
Si       8.76316780       3.45119726       3.61653700
Si       6.65227052       2.17810287      10.36103853
Si       8.64720251       1.84196971       9.12437212
Si      11.36362799       4.11332966      11.36304937
Si       4.83067217       0.73340138       5.84350029
Si       7.67550350       5.03177696      11.35486488
Si       7.57976359       2.93740292      12.38495924
Si       9.90813417       2.89511063      12.79977842
Si       5.90567216       1.38519094       1.71204955
16
Lattice="6.546308815571591 0.5318234596852198 1.7597888739091985 2.892590622194604 4.370145461609502 1.0921803111087522 6.665921162479939 1.915794713057783 14.181565272025876" Properties=species:S:1:pos:R:3 unique_starting_index=3 config_type=initial n_minim_iter=6 stress="0.0002106726576142152 0.00011956114097205738 -5.916185503271302e-05 0.00011956114097205738 5.1378045713387965e-05 -2.038885839770317e-05 -5.916185503271302e-05 -2.038885839770317e-05 5.504593733622478e-05" pbc="T T T"
Si       8.21513580       4.29167510       9.14795352
Si      10.28609347       3.07787247      15.15611218
Si       2.63168554       2.92443396       4.16816750
Si       6.41410416       3.27608427       3.11735547
Si       9.09598774       1.25328556       6.88856782
Si      10.52028968       3.46411718       9.19133762
Si       4.87368891       3.08061355       5.01104953
Si       8.76444563       3.45073700       3.61545022
Si       6.65335904       2.17836861      10.36041008
Si       8.64758862       1.84268388       9.12433083
Si      11.36576694       4.11401178      11.36366822
Si       4.83244937       0.73280736       5.84328312
Si       7.67524506       5.03072648      11.35437721
Si       7.58029339       2.93723261      12.38351916
Si       9.90850039       2.89458141      12.79989593
Si       5.90626565       1.38470694       1.71137348
16
Lattice="6.5444332169154125 0.5290759046758718 1.7616155255529877 2.8897633184432716 4.369330803387119 1.0941681197964288 6.666022217866928 1.916500272680942 14.185597350997844" Properties=species:S:1:pos:R:3 unique_starting_index=3 config_type=initial n_minim_iter=7 stress="-1.9424995676760047e-05 -2.882262770431793e-05 1.6739782284710423e-05 -2.882262770431793e-05 8.373315665617354e-05 0.0001124642073528268 1.6739782284710423e-05 0.0001124642073528268 0.00017855626159712164" pbc="T T T"
Si       8.21294170       4.29166052       9.15231847
Si      10.28447673       3.07689288      15.16171481
Si       2.63057157       2.92395703       4.16972364
Si       6.41126075       3.27282640       3.12045717
Si       9.09454865       1.25004026       6.89195096
Si      10.51690860       3.46303723       9.19732641
Si       4.87188546       3.07908621       5.01379468
Si       8.76053829       3.44726126       3.61851024
Si       6.65258958       2.17846093      10.36313816
Si       8.64562459       1.84188170       9.12794549
Si      11.36339661       4.11261067      11.37001683
Si       4.83299522       0.73163131       5.84519227
Si       7.67191333       5.03028697      11.35864219
Si       7.57902806       2.93724090      12.38689504
Si       9.90631000       2.89315517      12.80491579
Si       5.90396743       1.38175506       1.71279940
16
Lattice="6.545885136247638 0.5276449791049103 1.7612940494905447 2.8896937924929396 4.368600109281801 1.0932804983730116 6.668111222378768 1.913163094131949 14.180191438221451" Properties=species:S:1:pos:R:3 unique_starting_index=3 config_type=initial n_minim_iter=8 stress="0.0001299277787182559 -8.291542319369042e-05 8.528413202015439e-05 -8.291542319369042e-05 6.592778134459305e-05 -5.395307384656645e-05 8.528413202015439e-05 -5.395307384656645e-05 -0.0002572972803907059" pbc="T T T"
Si       8.21486757       4.28959698       9.14870696
Si      10.28694828       3.07250992      15.15611403
Si       2.63106883       2.92247058       4.16748789
Si       6.41225089       3.27046504       3.11931931
Si       9.09712428       1.24698994       6.88994067
Si      10.51897034       3.46065569       9.19472639
Si       4.87281361       3.07692271       5.01180189
Si       8.76198939       3.44488416       3.61710303
Si       6.65407358       2.17589479      10.35864953
Si       8.64778977       1.83946995       9.12434679
Si      11.36632620       4.10930083      11.36642779
Si       4.83494420       0.72960767       5.84293886
Si       7.67289923       5.02746108      11.35360277
Si       7.58078117       2.93400081      12.38192567
Si       9.90866526       2.88926045      12.80029872
Si       5.90520363       1.38013515       1.71192793
16
Lattice="6.54455115318744 0.5284228170577893 1.7601699480348865 2.8897160301676026 4.367762040256656 1.0924932982444957 6.663939697772556 1.9124171372234868 14.182663802198041" Properties=species:S:1:pos:R:3 unique_starting_index=3 config_type=initial n_minim_iter=9 stress="-0.00011239002122087965 3.2433996584473785e-05 -3.9315394149832495e-05 3.2433996584473785e-05 -0.00014000638048489332 -0.00010881380006128059 -3.9315394149832495e-05 -0.00010881380006128059 -7.771001967708276e-05" pbc="T T T"
Si       8.21231164       4.28964576       9.14907261
Si      10.28189477       3.07161305      15.15797226
Si       2.63023218       2.92143943       4.16762842
Si       6.41094776       3.26980632       3.11838780
Si       9.09466912       1.24716602       6.89000683
Si      10.51555284       3.46140538       9.19511105
Si       4.87139882       3.07589513       5.01201002
Si       8.76039757       3.44474574       3.61565187
Si       6.65038826       2.17555929      10.35952667
Si       8.64469511       1.83993853       9.12444378
Si      11.36275201       4.10940259      11.36734559
Si       4.83338002       0.72934460       5.84319244
Si       7.66929908       5.02684731      11.35441183
Si       7.57686835       2.93321387      12.38354760
Si       9.90448521       2.88875413      12.80158331
Si       5.90420589       1.38035670       1.71053819
16
Lattice="6.543210027614479 0.5280517840310961 1.7613752924913475 2.8882387913988925 4.368400076332668 1.0954155232859464 6.663189711579393 1.9191790594880305 14.187635355333763" Properties=species:S:1:pos:R:3 unique_starting_index=3 config_type=initial n_minim_iter=10 stress="-5.4439664232357083e-05 3.181525001656328e-05 1.5004212518264553e-05 3.181525001656328e-05 4.9426889566401956e-05 0.00012170442771594033 1.5004212518264553e-05 0.00012170442771594033 0.0002462425240293723" pbc="T T T"
Si       8.21058395       4.29578937       9.15400821
Si      10.27959099       3.07693538      15.16441102
Si       2.62899363       2.92354533       4.17079260
Si       6.40838009       3.26992864       3.12114470
Si       9.09407428       1.24781897       6.89357727
Si      10.51370229       3.46707610       9.20040130
Si       4.87059684       3.07674123       5.01615639
Si       8.75887338       3.44393256       3.61843426
Si       6.64891133       2.18052125      10.36378697
Si       8.64327620       1.84396161       9.12814874
Si      11.35977658       4.11562614      11.37480081
Si       4.83420713       0.73019415       5.84451101
Si       7.66627325       5.03345602      11.36006383
Si       7.57514206       2.93865859      12.38746623
Si       9.90291139       2.89450744      12.80713975
Si       5.90228738       1.37975388       1.71194952
16
Lattice="6.543299142702157 0.5263443452696107 1.760204201991058 2.887117648706673 4.3672720407684205 1.0951047090535728 6.661022941243725 1.9180384090434146 14.185080112624208" Properties=species:S:1:pos:R:3 unique_starting_index=3 config_type=initial n_minim_iter=11 stress="1.433271726289622e-05 -4.3688018562617195e-05 -6.254112199135943e-05 -4.3688018562617195e-05 1.4006359208619512e-05 6.730179310463367e-05 -6.254112199135943e-05 6.730179310463367e-05 8.569715563136396e-05" pbc="T T T"
Si       8.20904753       4.29546537       9.15195551
Si      10.27673553       3.07386934      15.16145423
Si       2.62790092       2.92223449       4.16979056
Si       6.40722048       3.26697978       3.12003360
Si       9.09420686       1.24462893       6.89195888
Si      10.51210367       3.46651718       9.19889487
Si       4.86962826       3.07427974       5.01546753
Si       8.75819625       3.44061697       3.61660525
Si       6.64682096       2.17948581      10.36107119
Si       8.64206728       1.84291756       9.12551900
Si      11.35797567       4.11411511      11.37334985
Si       4.83477607       0.72821456       5.84255670
Si       7.66270233       5.03229015      11.35729567
Si       7.57266339       2.93710393      12.38444750
Si       9.90062499       2.89232448      12.80460538
Si       5.90198498       1.37758506       1.71040245
16
Lattice="6.54339050602298 0.5260334560541339 1.761117997917098 2.8870407901971666 4.366981493183144 1.0954236174106766 6.663042381186917 1.9174852215489269 14.185108883360263" Properties=species:S:1:pos:R:3 unique_starting_index=3 config_type=initial n_minim_iter=12 stress="7.202235945214982e-07 4.2206311445969785e-05 8.110672790588688e-05 4.2206311445969785e-05 2.2863520975077102e-05 -4.055684678881692e-05 8.110672790588688e-05 -4.055684678881692e-05 -6.650751023912628e-05" pbc="T T T"
Si       8.21055540       4.29680339       9.15262366
Si      10.27820954       3.07204611      15.16214662
Si       2.62858050       2.92121020       4.16950823
Si       6.40711063       3.26529830       3.12084919
Si       9.09594804       1.24290599       6.89349741
Si      10.51312638       3.46828599       9.20086461
Si       4.87047000       3.07254672       5.01633517
Si       8.75851483       3.43909817       3.61744562
Si       6.64776842       2.17938849      10.36060336
Si       8.64323518       1.84351830       9.12585640
Si      11.35946944       4.11479932      11.37581338
Si       4.83701286       0.72674620       5.84220662
Si       7.66290880       5.03239968      11.35697640
Si       7.57389769       2.93664319      12.38423580
Si       9.90184303       2.89167631      12.80558294
Si       5.90196073       1.37663162       1.71056795
16
Lattice="6.54318049625651 0.523248812750832 1.75885939262745 2.884961051435272 4.364740917155859 1.0951717571794075 6.657840267615515 1.916555816030877 14.182707466672053" Properties=species:S:1:pos:R:3 unique_starting_index=3 config_type=initial n_minim_iter=13 stress="9.990174256638176e-05 -0.00011499684657490831 -0.0001270658568719025 -0.00011499684657490831 -3.2729289307937305e-05 -5.036588139281453e-05 -0.0001270658568719025 -5.036588139281453e-05 -0.0001840506494638886" pbc="T T T"
Si       8.20674473       4.29698428       9.15042512
Si      10.27170496       3.06693458      15.15867205
Si       2.62664801       2.91822526       4.16842928
Si       6.40463968       3.26012601       3.11907292
Si       9.09552263       1.23731379       6.89142542
Si      10.50982995       3.46923525       9.19835755
Si       4.86834539       3.06784091       5.01594603
Si       8.75670327       3.43290062       3.61469066
Si       6.64323777       2.17842408      10.35737008
Si       8.64020373       1.84320329       9.12260013
Si      11.35417572       4.11355046      11.37451815
Si       4.83750334       0.72290127       5.83905715
Si       7.65553043       5.03089318      11.35378576
Si       7.56825097       2.93545357      12.38123828
Si       9.89572661       2.88942951      12.80295359
Si       5.90104350       1.37272846       1.70777318
16
Lattice="6.542988532025025 0.5255258666023789 1.761168790398472 2.8864842030997724 4.36526762446947 1.0961214678924225 6.661505523333294 1.9182088761927552 14.188937097501011" Properties=species:S:1:pos:R:3 unique_starting_index=3 config_type=initial n_minim_iter=14 stress="-5.407807040219808e-05 4.621851436222827e-05 3.8214941376616244e-05 4.621851436222827e-05 -2.168273119415313e-05 -6.906255510175202e-06 3.8214941376616244e-05 -6.906255510175202e-06 2.8478539167914902e-05" pbc="T T T"
Si       8.20931215       4.29913619       9.15562419
Si      10.27600924       3.06834008      15.16541616
Si       2.62945796       2.91677046       4.17021466
Si       6.40604683       3.26199838       3.12159695
Si       9.09673299       1.23912463       6.89653809
Si      10.51353140       3.47500558       9.20165152
Si       4.87041762       3.06797872       5.01856046
Si       8.75747553       3.43463044       3.61879709
Si       6.64649820       2.18057538      10.36290410
Si       8.64264857       1.84758962       9.12854412
Si      11.35535591       4.11777923      11.38031989
Si       4.83858428       0.72260077       5.84169518
Si       7.65974669       5.03261682      11.35930462
Si       7.57148288       2.93902040      12.38853093
Si       9.89759407       2.89358323      12.80966201
Si       5.90107748       1.37421503       1.71014219
16
Lattice="6.5424197528512815 0.521972704731966 1.761183122386477 2.8834329892300863 4.362579071162519 1.0985294044677634 6.658665260469101 1.9211261283687666 14.192707046759567" Properties=species:S:1:pos:R:3 unique_starting_index=3 config_type=initial n_minim_iter=15 stress="6.318294995159833e-05 -2.4299710462282943e-05 -3.4282855859081585e-05 -2.4299710462282943e-05 7.116399600817768e-05 5.921604502114645e-05 -3.4282855859081585e-05 5.921604502114645e-05 9.610681718211952e-05" pbc="T T T"
Si       8.20633631       4.30404637       9.15926169
Si      10.27114848       3.06468645      15.16991393
Si       2.62896267       2.91103298       4.17133558
Si       6.40308352       3.25362342       3.12398077
Si       9.09788826       1.23060267       6.90077996
Si      10.51143557       3.48443666       9.20516676
Si       4.86936503       3.06022144       5.02161165
Si       8.75474715       3.42486539       3.62013006
Si       6.64284327       2.18412802      10.36497350
Si       8.64138010       1.85278826       9.13043910
Si      11.34974965       4.12111038      11.38828168
Si       4.84229633       0.71593802       5.84084384
Si       7.65093384       5.03587352      11.36225950
Si       7.56569662       2.94234667      12.39117741
Si       9.89205396       2.89465926      12.81366498
Si       5.89869030       1.36753251       1.70975826
16
Lattice="6.541876881636644 0.5174482070857973 1.762641044462956 2.8799073094566903 4.358501871362322 1.1016477287598565 6.658086696616264 1.9228649500913961 14.199094596192108" Properties=species:S:1:pos:R:3 unique_starting_index=3 config_type=initial n_minim_iter=16 stress="5.6804499622673386e-05 -3.818899321048035e-05 -5.198732515143112e-05 -3.818899321048035e-05 2.9564708821816326e-05 1.4379299830009239e-05 -5.198732515143112e-05 1.4379299830009239e-05 4.9902150567922025e-06" pbc="T T T"
Si       8.20402218       4.30787591       9.16525136
Si      10.26882764       3.05905708      15.17775494
Si       2.62996956       2.90068974       4.17291155
Si       6.40094222       3.24163448       3.12854531
Si       9.09943234       1.21772973       6.90912303
Si      10.51108939       3.49786276       9.20963376
Si       4.86967271       3.04816583       5.02443485
Si       8.75164651       3.41107776       3.62357619
Si       6.64034229       2.18903944      10.37054178
Si       8.64252092       1.85975102       9.13513877
Si      11.34465327       4.12323596      11.39909497
Si       4.84748407       0.70522529       5.84192005
Si       7.64245448       5.03937686      11.36768326
Si       7.55991930       2.94596401      12.39683637
Si       9.88781458       2.89446705      12.81972519
Si       5.89532803       1.35803335       1.71203857
16
Lattice="6.541316059885997 0.5163011948143051 1.7664268899701472 2.8789645776142594 4.3569648494689375 1.1041972925114047 6.663192977161917 1.9236728370804697 14.206991917793294" Properties=species:S:1:pos:R:3 unique_starting_index=3 config_type=initial n_minim_iter=17 stress="-0.00012092394496006212 0.00013629566239968099 0.00012859167744230196 0.00013629566239968099 -7.742688180780278e-05 -9.238388106688335e-05 0.00012859167744230196 -9.238388106688335e-05 -0.00010860783599388786" pbc="T T T"
Si       8.20485497       4.30671821       9.17383207
Si      10.27404450       3.06085860      15.18709041
Si       2.63066675       2.89600135       4.17586172
Si       6.40220560       3.23771450       3.13342280
Si       9.09845146       1.21196338       6.91856066
Si      10.51379910       3.50492674       9.21411809
Si       4.87213316       3.04272639       5.02526260
Si       8.75140155       3.40650084       3.62983730
Si       6.64298784       2.19396067      10.37955004
Si       8.64633896       1.86183234       9.14342696
Si      11.34792186       4.12243879      11.40570384
Si       4.84842007       0.70080896       5.84747449
Si       7.64586163       5.04190978      11.37495279
Si       7.56186231       2.94851719      12.40646866
Si       9.89045773       2.89485134      12.82744205
Si       5.89396003       1.35488508       1.71927655
16
Lattice="6.536348088591099 0.49882864200843435 1.7729712918909464 2.863885797381831 4.342985690960963 1.1169965943989155 6.658644119154713 1.9317468615490272 14.23634339931415" Properties=species:S:1:pos:R:3 unique_starting_index=3 config_type=initial n_minim_iter=18 stress="-0.00016102808382475282 8.929654180200095e-05 0.00019391664530542507 8.929654180200095e-05 -0.00013060498601724752 -9.927157983430972e-05 0.00019391664530542507 -9.927157983430972e-05 -0.0001828481082074185" pbc="T T T"
Si       8.18978726       4.31450254       9.20592922
Si      10.26116867       3.04973722      15.21964736
Si       2.62262996       2.87077399       4.18686991
Si       6.39138125       3.20087953       3.14813108
Si       9.09454278       1.16746301       6.95008123
Si      10.50487738       3.54076006       9.23494139
Si       4.86945507       3.00395474       5.03643124
Si       8.73959927       3.36256964       3.64619723
Si       6.63208952       2.21281230      10.40342602
Si       8.64282178       1.87268675       9.16721778
Si      11.33413983       4.12356746      11.44218709
Si       4.85752954       0.67022726       5.85577213
Si       7.61992794       5.05111290      11.39810387
Si       7.54348218       2.95935238      12.43669298
Si       9.87033093       2.89374840      12.85800436
Si       5.88327772       1.32570538       1.73254089
16
Lattice="6.530789270549973 0.4795475496919587 1.776264238056412 2.8469335220398793 4.327845566974297 1.1296325620947711 6.646157510927303 1.9415279112624795 14.26428865363145" Properties=species:S:1:pos:R:3 unique_starting_index=3 config_type=initial n_minim_iter=19 stress="-0.0001851440830028125 -0.00010179621634873275 0.00011158018208694723 -0.00010179621634873275 -8.478884227456989e-05 -4.286899227987057e-05 0.00011158018208694723 -4.286899227987057e-05 -8.445400541400909e-05" pbc="T T T"
Si       8.17020396       4.32787801       9.23531160
Si      10.23849716       3.03438831      15.24986124
Si       2.61222757       2.84440809       4.19706328
Si       6.37694487       3.16032271       3.16030967
Si       9.09118220       1.11986971       6.97832381
Si      10.48970565       3.58015732       9.25679325
Si       4.86317668       2.96177713       5.04898183
Si       8.72534681       3.31454453       3.65857866
Si       6.61512664       2.23191364      10.42227317
Si       8.63320212       1.88571455       9.18670760
Si      11.31321765       4.12758949      11.48154714
Si       4.86846202       0.63707302       5.85949215
Si       7.58196435       5.06100796      11.41894461
Si       7.51735641       2.97086968      12.46301712
Si       9.84237861       2.89307709      12.88709835
Si       5.87180974       1.29374866       1.73904207
16
Lattice="6.529718217198551 0.47124705586195226 1.7705715997930218 2.839591191084856 4.321558588463849 1.13292612290204 6.6285698921220835 1.948840944084066 14.268509165870517" Properties=species:S:1:pos:R:3 unique_starting_index=3 config_type=initial n_minim_iter=20 stress="0.00020134188286192697 -0.00011587379977771807 -0.0003221035513460837 -0.00011587379977771807 0.00012968356099066282 0.00027070602599606544 -0.0003221035513460837 0.00027070602599606544 0.00022600333604580033" pbc="T T T"
Si       8.15705012       4.34016417       9.23874736
Si      10.21630265       3.02764117      15.25195669
Si       2.60179974       2.83710750       4.19976177
Si       6.36877943       3.14441325       3.15771807
Si       9.09026530       1.10171919       6.97908092
Si      10.47461742       3.59749283       9.26311191
Si       4.85460691       2.94433657       5.05168383
Si       8.71942959       3.29633245       3.65490061
Si       6.60130501       2.24082630      10.41736782
Si       8.61985280       1.89047385       9.18368232
Si      11.30096523       4.13154745      11.49331188
Si       4.87202711       0.62515209       5.85391549
Si       7.55286251       5.06538299      11.41966345
Si       7.49823675       2.97607812      12.46380850
Si       9.82269877       2.89423250      12.89106980
Si       5.86985342       1.28136611       1.72948713
16
Lattice="6.534298331006019 0.4768676156953048 1.768996305819613 2.8467524636077286 4.32587899671848 1.125500099462248 6.6352300937565065 1.9356558406528426 14.258507837616873" Properties=species:S:1:pos:R:3 unique_starting_index=3 config_type=initial n_minim_iter=21 stress="0.00040058606156147323 0.00011244431309543328 -0.0002493108140481217 0.00011244431309543328 0.00038436623877012485 6.287734832860067e-05 -0.0002493108140481217 6.287734832860067e-05 0.0003082058863873351" pbc="T T T"
Si       8.16587967       4.32723434       9.22464017
Si      10.23048761       3.02276379      15.23981298
Si       2.60371774       2.84340866       4.19727496
Si       6.37718203       3.16106843       3.14975890
Si       9.09395468       1.11444791       6.96800714
Si      10.48184402       3.57729937       9.25329519
Si       4.85533635       2.95531931       5.04208389
Si       8.72731809       3.31353037       3.65011232
Si       6.61367700       2.22840461      10.40944556
Si       8.62459650       1.87655301       9.17609956
Si      11.31465841       4.11711999      11.47764577
Si       4.86652088       0.63237456       5.85489364
Si       7.56869899       5.05218929      11.41221667
Si       7.51215041       2.96366666      12.45499849
Si       9.83995714       2.88593171      12.87889745
Si       5.87784845       1.29335245       1.72414088
