16
Lattice="13.792800920698175 3.6239701702578397 7.317880791442522 4.531270283187499 11.374547872091355 2.779275793754151 5.398610052569943 4.238753240683439 6.166239187976382" Properties=species:S:1:pos:R:3 unique_starting_index=30 config_type=initial n_minim_iter=1 energy=-2733.963842868981 free_energy=-2733.963842868981 pbc="T T T"
Si      13.57390882      12.85386723      10.59438413
Si      10.14877243       6.38340405       5.66901165
Si       7.66654402       7.46498407       5.66517427
Si      16.05613724      11.77228722      10.59822150
Si      14.30218277      11.17229706      10.55864369
Si       9.42049849       8.06497422       5.70475208
Si      11.18513967       7.77899895       6.20306766
Si      12.53754158      11.45827234      10.06032811
Si       6.36227604       8.52449141       4.87181644
Si      17.36040522      10.71277987      11.39157934
Si      19.11683891      11.17226240      11.00280638
Si       4.60584234       8.06500889       5.26058939
Si       5.97796689       6.82215068       5.25354589
Si      17.74471436      12.41512060      11.00984988
Si      16.20069249      13.40470049      11.29914610
Si       7.52198876       5.83257079       4.96424967
16
Lattice="13.792979441833516 3.623963087711822 7.317882420144585 4.531323568851113 11.37450469312259 2.7792968946873247 5.398661216803991 4.238744488428934 6.166276057613902" Properties=species:S:1:pos:R:3 unique_starting_index=30 config_type=initial n_minim_iter=2 stress="0.000605085445314873 5.789275292490601e-06 -0.0001613962423069294 5.789275292490601e-06 0.00016294098689425686 -6.619100424299959e-05 -0.0001613962423069294 -6.619100424299959e-05 0.00013237989370936453" pbc="T T T"
Si      13.57408636      12.85382782      10.59444250
Si      10.14887787       6.38338445       5.66901287
Si       7.66664463       7.46498771       5.66519010
Si      16.05631960      11.77222456      10.59826527
Si      14.30233225      11.17227159      10.55870244
Si       9.42063198       8.06494068       5.70475294
Si      11.18526536       7.77895753       6.20312551
Si      12.53769887      11.45825474      10.06032986
Si       6.36235997       8.52445138       4.87183373
Si      17.36060426      10.71276089      11.39162164
Si      19.11711532      11.17223749      11.00287409
Si       4.60584890       8.06497477       5.26058128
Si       5.97803120       6.82210275       5.25361238
Si      17.74493302      12.41510952      11.00984299
Si      16.20083560      13.40466372      11.29919973
Si       7.52212863       5.83254855       4.96425565
16
Lattice="13.792790616014903 3.6239537679827603 7.317936473096883 4.531259560403829 11.37442782049627 2.7793447281273944 5.398598658164765 4.2387299749032845 6.166302001993772" Properties=species:S:1:pos:R:3 unique_starting_index=30 config_type=initial n_minim_iter=3 stress="-0.00010791956097584303 4.790553214022843e-06 -0.00019434875174031038 4.790553214022843e-06 -7.613609496299692e-05 -7.237555467547355e-05 -0.00019434875174031038 -7.237555467547355e-05 -8.454343462760345e-05" pbc="T T T"
Si      13.57391918      12.85376063      10.59452348
Si      10.14872965       6.38335094       5.66905972
Si       7.66654854       7.46495818       5.66522974
Si      16.05610030      11.77215338      10.59835346
Si      14.30213801      11.17221935      10.55878401
Si       9.42051082       8.06489221       5.70479919
Si      11.18510514       7.77890837       6.20320059
Si      12.53754369      11.45820320      10.06038261
Si       6.36228051       8.52439598       4.87187437
Si      17.36036833      10.71271558      11.39170883
Si      19.11686637      11.17218526      11.00298606
Si       4.60578247       8.06492630       5.26059714
Si       5.97795705       6.82205648       5.25366390
Si      17.74469178      12.41505508      11.00991931
Si      16.20060011      13.40459463      11.29929230
Si       7.52204872       5.83251693       4.96429090
16
Lattice="13.792929754306922 3.6240169997404177 7.318312197256834 4.531306109926017 11.374471334378502 2.7795625788504257 5.398720595592018 4.2387898169187075 6.1664984055622165" Properties=species:S:1:pos:R:3 unique_starting_index=30 config_type=initial n_minim_iter=4 stress="-2.6238378581682186e-05 -3.0760165240257645e-05 4.2226944125059076e-05 -3.0760165240257645e-05 5.3903535315502696e-05 -1.2682276194955282e-05 4.2226944125059076e-05 -1.2682276194955282e-05 5.3935404502822044e-05" pbc="T T T"
Si      13.57412977      12.85387438      10.59500349
Si      10.14882669       6.38340378       5.66936970
Si       7.66665790       7.46502604       5.66549500
Si      16.05629856      11.77225211      10.59887818
Si      14.30233483      11.17232681      10.55926483
Si       9.42062163       8.06495134       5.70510835
Si      11.18521360       7.77896609       6.20356251
Si      12.53774286      11.45831206      10.06081067
Si       6.36237387       8.52444922       4.87211952
Si      17.36058259      10.71282893      11.39225366
Si      19.11707472      11.17229413      11.00358216
Si       4.60588174       8.06498402       5.26079102
Si       5.97806279       6.82210528       5.25390146
Si      17.74489367      12.41517287      11.01047172
Si      16.20079412      13.40471109      11.29984027
Si       7.52216234       5.83256706       4.96453291
16
Lattice="13.793091815852367 3.6241478124665654 7.318365091684125 4.531435265872616 11.37439770792475 2.7796793730862754 5.398822154742413 4.238840869210056 6.166521602513142" Properties=species:S:1:pos:R:3 unique_starting_index=30 config_type=initial n_minim_iter=5 stress="7.931518351096173e-05 7.015339583155826e-05 2.911490355127194e-05 7.015339583155826e-05 -9.47675764739129e-05 6.921856877545204e-05 2.911490355127194e-05 6.921856877545204e-05 -0.00010800934596663803" pbc="T T T"
Si      13.57439079      12.85393492      10.59512212
Si      10.14895845       6.38345147       5.66944394
Si       7.66678463       7.46505373       5.66555982
Si      16.05656460      11.77233266      10.59900625
Si      14.30257834      11.17240629      10.55937024
Si       9.42077090       8.06498010       5.70519583
Si      11.18536719       7.77900912       6.20365245
Si      12.53798205      11.45837727      10.06091362
Si       6.36250759       8.52444097       4.87220093
Si      17.36084165      10.71294542      11.39236513
Si      19.11734246      11.17241339      11.00372148
Si       4.60600678       8.06497299       5.26084459
Si       5.97819670       6.82211896       5.25397284
Si      17.74515254      12.41526743      11.01059323
Si      16.20104068      13.40478318      11.29997857
Si       7.52230856       5.83260321       4.96458750
16
Lattice="13.793031375902943 3.624117432905781 7.318483419435194 4.5313822607545005 11.374405069906132 2.7797359265328025 5.398797425704362 4.238838069295641 6.166607119558079" Properties=species:S:1:pos:R:3 unique_starting_index=30 config_type=initial n_minim_iter=6 stress="8.050086747163203e-06 -0.00010182973668301936 -3.335584551962661e-05 -0.00010182973668301936 -2.0647877445413237e-05 2.9444354321920248e-05 -3.335584551962661e-05 2.9444354321920248e-05 2.3253030239258206e-05" pbc="T T T"
Si      13.57433667      12.85394315      10.59528274
Si      10.14887439       6.38341742       5.66954372
Si       7.66671667       7.46504882       5.66564237
Si      16.05649439      11.77231175      10.59918409
Si      14.30251972      11.17239598      10.55952916
Si       9.42069134       8.06496459       5.70529730
Si      11.18527652       7.77897297       6.20375619
Si      12.53793454      11.45838760      10.06107028
Si       6.36245920       8.52444053       4.87227726
Si      17.36075187      10.71292004      11.39254921
Si      19.11723363      11.17238415      11.00391598
Si       4.60597743       8.06497643       5.26091048
Si       5.97819029       6.82211303       5.25407712
Si      17.74502077      12.41524755      11.01074934
Si      16.20089954      13.40476719      11.30016729
Si       7.52231152       5.83259338       4.96465917
16
Lattice="13.793118042182394 3.624401501011558 7.318627059250952 4.531639155267138 11.374564361598269 2.7797226038310194 5.398927624053593 4.238948148873429 6.166656719231144" Properties=species:S:1:pos:R:3 unique_starting_index=30 config_type=initial n_minim_iter=7 stress="-2.6241376158487888e-05 8.101934893040333e-05 1.6856559453508076e-06 8.101934893040333e-05 4.8476190483263916e-05 -7.02118051502228e-05 1.6856559453508076e-06 -7.02118051502228e-05 4.6956002921319405e-05" pbc="T T T"
Si      13.57468343      12.85428338      10.59537167
Si      10.14900140       6.38363064       5.66963471
Si       7.66689564       7.46523073       5.66569009
Si      16.05678918      11.77268328      10.59931629
Si      14.30282995      11.17273262      10.55963604
Si       9.42085487       8.06518139       5.70537035
Si      11.18544078       7.77921200       6.20383813
Si      12.53824405      11.45870201      10.06116825
Si       6.36266729       8.52461582       4.87229757
Si      17.36101753      10.71329819      11.39270881
Si      19.11750636      11.17281339      11.00408907
Si       4.60617847       8.06510062       5.26091731
Si       5.97838733       6.82225605       5.25412769
Si      17.74529749      12.41565796      11.01087869
Si      16.20118838      13.40514780      11.30029584
Si       7.52249644       5.83276621       4.96471054
16
Lattice="13.793304925656994 3.6245967557607557 7.318839035921173 4.531780888695127 11.374570892200625 2.7799519500090866 5.39907861897894 4.239060157985823 6.166746237760822" Properties=species:S:1:pos:R:3 unique_starting_index=30 config_type=initial n_minim_iter=8 stress="3.25170996613695e-05 -5.5705766327600555e-05 2.8229225145167687e-05 -5.5705766327600555e-05 6.261621343564822e-05 -3.8683700980564734e-05 2.8229225145167687e-05 -3.8683700980564734e-05 -0.00014147772313099217" pbc="T T T"
Si      13.57502227      12.85450268      10.59567479
Si      10.14914216       6.38372513       5.66986243
Si       7.66707349       7.46532393       5.66587377
Si      16.05709095      11.77290387      10.59966346
Si      14.30318661      11.17295923      10.55992160
Si       9.42097782       8.06526857       5.70561563
Si      11.18560003       7.77930222       6.20406720
Si      12.53856440      11.45892559      10.06147003
Si       6.36282162       8.52471081       4.87246532
Si      17.36134282      10.71351699      11.39307191
Si      19.11785991      11.17305066      11.00448584
Si       4.60630452       8.06517715       5.26105138
Si       5.97857607       6.82234247       5.25428866
Si      17.74558836      12.41588534      11.01124857
Si      16.20143428      13.40536552      11.30067548
Si       7.52273016       5.83286229       4.96486174
16
Lattice="13.79334011972548 3.624887630056367 7.319135751459464 4.5319550591611275 11.374505972764663 2.7802424247170343 5.399155308557315 4.239187697900309 6.1669829999480505" Properties=species:S:1:pos:R:3 unique_starting_index=30 config_type=initial n_minim_iter=9 stress="-3.0970062909576504e-05 2.184793443066753e-05 -4.2634849092211904e-05 2.184793443066753e-05 1.2672183469286457e-05 9.132208079848431e-05 -4.2634849092211904e-05 9.132208079848431e-05 7.987548211885527e-05" pbc="T T T"
Si      13.57523163      12.85471633      10.59619393
Si      10.14921886       6.38386497       5.67016725
Si       7.66718869       7.46541772       5.66617270
Si      16.05726179      11.77316358      10.60018847
Si      14.30338411      11.17320868      10.56040652
Si       9.42106637       8.06537262       5.70595466
Si      11.18567281       7.77943596       6.20439381
Si      12.53877767      11.45914534      10.06196736
Si       6.36294278       8.52477920       4.87274271
Si      17.36150771      10.71380210      11.39361846
Si      19.11803312      11.17336413      11.00503126
Si       4.60641737       8.06521717       5.26132991
Si       5.97869933       6.82242437       5.25456171
Si      17.74575115      12.41615693      11.01179947
Si      16.20157429      13.40560668      11.30125714
Si       7.52287620       5.83297462       4.96510404
16
Lattice="13.79350198141493 3.6249388566179586 7.319327639491645 4.532110766362556 11.374343947479225 2.780281912129009 5.39928940219615 4.239150531859041 6.167059436580059" Properties=species:S:1:pos:R:3 unique_starting_index=30 config_type=initial n_minim_iter=10 stress="2.9019802499325518e-05 -2.468787563085025e-05 2.2971149087443133e-05 -2.468787563085025e-05 -0.00014298206321906596 -5.698959745444079e-05 2.2971149087443133e-05 -5.698959745444079e-05 5.7409236274531975e-05" pbc="T T T"
Si      13.57552209      12.85461278      10.59635552
Si      10.14938006       6.38382056       5.67031347
Si       7.66734792       7.46533359       5.66626829
Si      16.05755423      11.77309974      10.60040070
Si      14.30367783      11.17314158      10.56057824
Si       9.42122432       8.06529176       5.70609075
Si      11.18581338       7.77936616       6.20453266
Si      12.53908877      11.45906718      10.06213632
Si       6.36308114       8.52469938       4.87279981
Si      17.36182101      10.71373396      11.39386918
Si      19.11834578      11.17332510      11.00529219
Si       4.60655637       8.06510824       5.26137680
Si       5.97885642       6.82235363       5.25464075
Si      17.74604573      12.41607970      11.01202824
Si      16.20182968      13.40550162      11.30147523
Si       7.52307247       5.83293172       4.96519376
16
Lattice="13.793545873383517 3.6253313205535354 7.319391211473831 4.532303996464435 11.37465713019363 2.7804239643371838 5.399381513247741 4.2393946821594755 6.167078192098249" Properties=species:S:1:pos:R:3 unique_starting_index=30 config_type=initial n_minim_iter=11 stress="-1.6575875838155022e-05 -2.2826700804228605e-06 -2.4947025624157788e-05 -2.2826700804228605e-06 5.9367599555406884e-05 5.103315534267236e-06 -2.4947025624157788e-05 5.103315534267236e-06 -2.7904154158587723e-05" pbc="T T T"
Si      13.57573896      12.85522706      10.59648185
Si      10.14949243       6.38415607       5.67041152
Si       7.66746205       7.46565286       5.66634503
Si      16.05776933      11.77373028      10.60054834
Si      14.30389380      11.17373127      10.56068376
Si       9.42133759       8.06565186       5.70620961
Si      11.18588651       7.77974877       6.20464153
Si      12.53934487      11.45963437      10.06225183
Si       6.36319744       8.52504643       4.87287528
Si      17.36203395      10.71433670      11.39401809
Si      19.11854360      11.17398633      11.00545572
Si       4.60668778       8.06539680       5.26143765
Si       5.97899261       6.82264349       5.25470822
Si      17.74623877      12.41673964      11.01218515
Si      16.20199280      13.40616227      11.30163796
Si       7.52323858       5.83322086       4.96525541
16
Lattice="13.794918668793374 3.6277825600678013 7.321278958208375 4.534305466960665 11.374963642315562 2.7818768634024185 5.400744100400602 4.240479389331528 6.167996059558144" Properties=species:S:1:pos:R:3 unique_starting_index=30 config_type=initial n_minim_iter=12 stress="-1.1043615023730554e-05 -1.5446376284855303e-05 -2.115376629026375e-05 -1.5446376284855303e-05 -2.849601878412627e-05 5.152840500040575e-06 -2.115376629026375e-05 5.152840500040575e-06 8.848967862819406e-06" pbc="T T T"
Si      13.57863929      12.85759267      10.59905197
Si      10.15132895       6.38563292       5.67209991
Si       7.66897717       7.46678469       5.66774148
Si      16.06099107      11.77644090      10.60341040
Si      14.30712662      11.17628069      10.56319839
Si       9.42284161       8.06694490       5.70795349
Si      11.18745005       7.78129906       6.20669336
Si      12.54251819      11.46192653      10.06445852
Si       6.36467802       8.52609411       4.87412601
Si      17.36529021      10.71713149      11.39702587
Si      19.12169802      11.17713800      11.00854747
Si       4.60827021       8.06608759       5.26260441
Si       5.98073498       6.82358534       5.25595337
Si      17.74923325      12.41964025      11.01519851
Si      16.20473521      13.40883808      11.30461645
Si       7.52523303       5.83438751       4.96653544
16
Lattice="13.797011695849658 3.631745560957836 7.323875376837761 4.53756512409933 11.375821916427912 2.783750003552854 5.402871413927945 4.2422335422835395 6.1691451829670445" Properties=species:S:1:pos:R:3 unique_starting_index=30 config_type=initial n_minim_iter=13 stress="-1.8024511787003522e-05 -1.0415989406531682e-06 -5.28658858154897e-05 -1.0415989406531682e-06 -4.503610097382237e-06 5.400022725026887e-06 -5.28658858154897e-05 5.400022725026887e-06 -3.0279493267979216e-05" pbc="T T T"
Si      13.58322714      12.86163875      10.60243040
Si      10.15422110       6.38816227       5.67434016
Si       7.67152970       7.46889722       5.66958446
Si      16.06591853      11.78090380      10.60718611
Si      14.31222932      11.18049899      10.56645783
Si       9.42521891       8.06930203       5.71031274
Si      11.18977702       7.78408399       6.20937774
Si      12.54767122      11.46571703      10.06739282
Si       6.36707236       8.52782887       4.87571125
Si      17.37037587      10.72197215      11.40105931
Si      19.12663560      11.18250049      11.01263831
Si       4.61081263       8.06730053       5.26413225
Si       5.98353258       6.82508729       5.25754534
Si      17.75391566      12.42471373      11.01922522
Si      16.20919058      13.41336180      11.30855891
Si       7.52825765       5.83643922       4.96821166
16
Lattice="13.79861294956826 3.6344466434039133 7.326003457939521 4.539934910471674 11.37624931185403 2.785069917010862 5.404477764326919 4.243360224486491 6.170098585969877" Properties=species:S:1:pos:R:3 unique_starting_index=30 config_type=initial n_minim_iter=14 stress="-4.970880930757957e-06 2.3405368061235073e-06 -3.503240146451768e-05 2.3405368061235073e-06 -5.51623047186184e-05 9.8454403929925e-06 -3.503240146451768e-05 9.8454403929925e-06 -1.1123446674288582e-05" pbc="T T T"
Si      13.58668621      12.86424911      10.60504081
Si      10.15633942       6.38980707       5.67613115
Si       7.67339040       7.47021272       5.67107352
Si      16.06963523      11.78384346      10.61009844
Si      14.31597990      11.18317624      10.56901324
Si       9.42704573       8.07087994       5.71215872
Si      11.19158442       7.78593055       6.21145568
Si      12.55144121      11.46812563      10.06971629
Si       6.36882761       8.52883177       4.87695377
Si      17.37419801      10.72522441      11.40421819
Si      19.13040188      11.18607885      11.01592182
Si       4.61262374       8.06797733       5.26525014
Si       5.98565005       6.82602972       5.25872802
Si      17.75737557      12.42802646      11.02244395
Si      16.21252874      13.41626644      11.31163711
Si       7.53049688       5.83778974       4.96953485
16
Lattice="13.8013976031899 3.639468161058431 7.329862587014441 4.544354090300853 11.377547259147544 2.7870929761056558 5.4074137221152325 4.245468488837368 6.171735559587626" Properties=species:S:1:pos:R:3 unique_starting_index=30 config_type=initial n_minim_iter=15 stress="1.0793925420498768e-05 3.6537458526772235e-05 -7.096603888986282e-05 3.6537458526772235e-05 -5.539975986075885e-05 3.1647755968958137e-06 -7.096603888986282e-05 3.1647755968958137e-06 1.3039434273858709e-05" pbc="T T T"
Si      13.59308827      12.86932902      10.60943782
Si      10.16007715       6.39315489       5.67925331
Si       7.67686359       7.47282521       5.67366448
Si      16.07630183      11.78965870      10.61502665
Si      14.32290931      11.18843169      10.57354106
Si       9.43025611       8.07405222       5.71515006
Si      11.19472341       7.78967226       6.21507562
Si      12.55844201      11.47281165      10.07361550
Si       6.37204315       8.53100327       4.87920018
Si      17.38112226      10.73148064      11.40949095
Si      19.13714403      11.19309157      11.02166152
Si       4.61602139       8.06939234       5.26702960
Si       5.98946252       6.82805209       5.26061224
Si      17.76370290      12.43443182      11.02807888
Si      16.21847434      13.42206823      11.31687148
Si       7.53469108       5.84041568       4.97181964
16
Lattice="13.811829034328014 3.6570918801096854 7.344455554061404 4.560089703532462 11.38251973630047 2.794366811524785 5.418303106640261 4.25293436494317 6.177714110831771" Properties=species:S:1:pos:R:3 unique_starting_index=30 config_type=initial n_minim_iter=16 stress="0.0002045666312263475 1.8166207358567873e-05 -4.4282083901162894e-05 1.8166207358567873e-05 -7.673467910094785e-05 2.4116963513397915e-07 -4.4282083901162894e-05 2.4116963513397915e-07 -2.107174086450266e-05" pbc="T T T"
Si      13.61627525      12.88726015      10.62562485
Si      10.17394659       6.40528583       5.69091163
Si       7.68933608       7.48215213       5.68304196
Si      16.10088577      11.81039386      10.63349452
Si      14.34818836      11.20710207      10.59025058
Si       9.44203349       8.08544391       5.72628590
Si      11.20607810       7.80288198       6.22839976
Si      12.58414374      11.48966400      10.08813672
Si       6.38410499       8.53893063       4.88761016
Si      17.40611686      10.75361535      11.42892632
Si      19.16210105      11.21792850      11.04295775
Si       4.62812080       8.07461748       5.27357872
Si       6.00344555       6.83525881       5.26753268
Si      17.78677629      12.45728718      11.04900380
Si      16.24011711      13.44280327      11.33620623
Si       7.55010474       5.84974272       4.98033025
16
Lattice="13.829514280409596 3.686719714286067 7.369243676520219 4.586657161914382 11.391627550533105 2.806199030151598 5.436755269161322 4.265539965178238 6.1877882014275105" Properties=species:S:1:pos:R:3 unique_starting_index=30 config_type=initial n_minim_iter=17 stress="0.0008842124628920639 6.975274902813725e-05 -5.061602917822963e-05 6.975274902813725e-05 4.8241563789136044e-05 -0.00011399482605997466 -5.061602917822963e-05 -0.00011399482605997466 -3.751541944064145e-05" pbc="T T T"
Si      13.65549876      12.91755714      10.65279290
Si      10.19742795       6.42633009       5.71043801
Si       7.71040449       7.49819418       5.69861785
Si      16.14252222      11.84569305      10.66461306
Si      14.39122687      11.23873066      10.61777186
Si       9.46169984       8.10515657       5.74545905
Si      11.22552073       7.82529486       6.25062191
Si      12.62740599      11.51859237      10.11260900
Si       6.40438439       8.55258564       4.90169939
Si      17.44854232      10.79130159      11.46153151
Si      19.20418973      11.26016928      11.07922200
Si       4.64873698       8.08371795       5.28400890
Si       6.02670406       6.84760513       5.27925936
Si      17.82622265      12.49628210      11.08397155
Si      16.27683508      13.47829743      11.36856236
Si       7.57609163       5.86558980       4.99466855
16
Lattice="13.8702751745077 3.7544844103277004 7.4267241227324545 4.647643285104785 11.41180102858812 2.833661609418644 5.479173189001791 4.294226024807508 6.2113891364838665" Properties=species:S:1:pos:R:3 unique_starting_index=30 config_type=initial n_minim_iter=18 stress="0.004098057882468509 0.0005480944427657072 -0.00011679481700836798 0.0005480944427657072 9.94018561113643e-05 -0.0004905690822967353 -0.00011679481700836798 -0.0004905690822967353 -2.9002718485354007e-05" pbc="T T T"
Si      13.74623790      12.98597575      10.71631639
Si      10.25085375       6.47453572       5.75545848
Si       7.75891218       7.53399281       5.73445365
Si      16.23817946      11.92651866      10.73732121
Si      14.48987000      11.31112951      10.68184371
Si       9.50722165       8.14938195       5.78993116
Si      11.27045576       7.87679397       6.30189162
Si      12.72663589      11.58371749      10.16988325
Si       6.45061902       8.58343642       4.93463019
Si      17.54647263      10.87707504      11.53714468
Si      19.30125630      11.35599395      11.16320534
Si       4.69583535       8.10451752       5.30856953
Si       6.08010104       6.87522605       5.30714046
Si      17.91699061      12.58528542      11.16463441
Si      16.36164664      13.55849290      11.44378289
Si       7.63544501       5.90201856       5.02799198
16
Lattice="13.92315655984754 3.840005143873706 7.502623403554803 4.7248134715547945 11.438215782024672 2.869629025662151 5.533913825964462 4.330754767679538 6.242626950923077" Properties=species:S:1:pos:R:3 unique_starting_index=30 config_type=initial n_minim_iter=19 stress="0.01110949124673751 0.0014002355264440053 -0.00020037458934744218 0.0014002355264440053 0.0003244794396058741 -0.0013166575719280274 -0.00020037458934744218 -0.0013166575719280274 -3.9699855985730384e-05" pbc="T T T"
Si      13.86232756      13.07361138      10.80034567
Si      10.31955629       6.53536431       5.81453371
Si       7.82068080       7.57931370       5.78194863
Si      16.36120305      12.02966199      10.83293075
Si      14.61676130      11.40378396      10.76638832
Si       9.56512256       8.20519173       5.84849106
Si      11.32775281       7.94271911       6.36922007
Si      12.85413105      11.66625658      10.24565931
Si       6.51014013       8.62245316       4.97762262
Si      17.67174372      10.98652253      11.63725676
Si      19.42606649      11.47760728      11.27433994
Si       4.75581737       8.13136841       5.34053944
Si       6.14796172       6.91102156       5.34418429
Si      18.03392214      12.69795414      11.27069509
Si      16.47039939      13.66048611      11.54301158
Si       7.71148447       5.94848958       5.07186780
16
Lattice="13.970356666756224 3.915818055300625 7.572664055423453 4.793419843101364 11.463169736646755 2.9016287145533166 5.583414374051123 4.3633228882920205 6.270951750274159" Properties=species:S:1:pos:R:3 unique_starting_index=30 config_type=initial n_minim_iter=20 stress="0.018026665435688042 0.0023555312576714377 -0.00016505067237225005 0.0023555312576714377 0.0006724045592725381 -0.002070329638222097 -0.00016505067237225005 -0.002070329638222097 -6.769781021092878e-05" pbc="T T T"
Si      13.96680101      13.15206834      10.87710686
Si      10.38038988       6.59024234       5.86813766
Si       7.87567521       7.61989855       5.82544251
Si      16.47151568      12.12241213      10.91980201
Si      14.73044837      11.48686673      10.84349486
Si       9.61674251       8.25544395       5.90174966
Si      11.37845136       8.00168820       6.43052060
Si      12.96873953      11.74062248      10.31472392
Si       6.56330235       8.65733698       5.01650792
Si      17.78388854      11.08497370      11.72873660
Si      19.53770072      11.58566624      11.37606596
Si       4.80949016       8.15664444       5.36917856
Si       6.20827390       6.94347630       5.37778770
Si      18.13891699      12.79883438      11.36745682
Si      16.56803891      13.75231587      11.63341685
Si       7.77915198       5.98999481       5.11182767
16
Lattice="14.073836971454408 4.071888457866147 7.73826859374613 4.94077736072363 11.513276239586954 2.9686331953531897 5.694886781594881 4.428200423567281 6.335003074298214" Properties=species:S:1:pos:R:3 unique_starting_index=30 config_type=initial n_minim_iter=21 stress="0.03194066018447557 0.004438883674422351 8.721001823627944e-05 0.004438883674422351 0.001374854678995342 -0.0035491312978975353 8.721001823627944e-05 -0.0035491312978975353 -0.0005730102478119452" pbc="T T T"
Si      14.19744300      13.30996440      11.05157583
Si      10.51205811       6.70340072       5.99032904
Si       7.99468487       7.69957449       5.92378205
Si      16.71481625      12.31379063      11.11812281
Si      14.98258348      11.65577258      11.01786847
Si       9.72691764       8.35759255       6.02403640
Si      11.48686619       8.12526872       6.57101124
Si      13.22263492      11.88809640      10.47089362
Si       6.68038054       8.72726605       5.10412893
Si      18.02912058      11.28609907      11.93777593
Si      19.78354168      11.80756667      11.61247098
Si       4.92595943       8.20579845       5.42943388
Si       6.33901813       7.00857562       5.45406413
Si      18.37048298      13.00478950      11.58784073
Si      16.78350447      13.93780172      11.83962207
Si       7.92599665       6.07556340       5.20228280
