22
Lattice="6.723143287952479 -0.4791174239691841 -0.09534857318174852 -2.1033905781804036 6.804305641665022 -2.915115458554432 -0.9002920920541274 -4.330440725988338 14.328836849673905" Properties=species:S:1:pos:R:3 unique_starting_index=51 config_type=initial n_minim_iter=1 energy=-3675.1286289836994 free_energy=-3675.1286289836994 pbc="T T T"
Si       4.04448212       5.65825861       1.90630995
Si      -0.71663487      -0.03201439       7.98252426
Si       1.07135791       6.79210432      -3.78067005
Si      -2.05707812       2.58592461       1.73798730
Si       0.18900482       0.31008108       6.36954067
Si       5.10759351      -0.34230314       6.22529426
Si      -1.33131731       0.99888189       1.02271083
Si       0.24212355       0.21351178       0.38213544
Si      -0.54434272      -1.34075649       6.67079845
Si       6.34630160       0.36776713      11.01205864
Si      -0.38689624       1.27012270       9.25565993
Si       4.22040195       0.37842381       2.27655693
Si      -0.89904300       1.55082844       2.84980718
Si       4.04008611      -2.42228692      14.12628764
Si       4.98142609      -0.88606086      11.06934564
Si       4.38458228       3.84157246       2.23437034
Si       2.06385853      -0.12019661       0.65914965
Si       5.08893620       1.51002553      10.38834464
Si       5.21754468      -0.06190307       9.50604850
Si       1.04276435      -1.18384770       5.62921671
Si       3.60027991       0.94478907       0.65274820
Si       3.83756661      -0.65964132       0.75804920
22
Lattice="6.726555261622595 -0.4811291691649922 -0.10328964789560673 -2.100270975056878 6.837379937252149 -2.8852968655217532 -0.9160887349703909 -4.316110569978454 14.27721019717436" Properties=species:S:1:pos:R:3 unique_starting_index=51 config_type=initial n_minim_iter=2 stress="0.021141588561834863 -0.0008407675242820807 0.0005463403941897993 -0.0008407675242820807 0.033276861027870655 0.027380772788141546 0.0005463403941897993 0.027380772788141546 0.033706043324748275" pbc="T T T"
Si       4.04519475       5.69952403       1.91359832
Si      -0.72478643      -0.00964320       7.95892604
Si       1.07677768       6.82381670      -3.74961983
Si      -2.05872185       2.60553725       1.74277992
Si       0.18258954       0.33137889       6.35247790
Si       5.10413080      -0.32531000       6.20230553
Si      -1.33350572       1.00587427       1.02388904
Si       0.24078040       0.21652983       0.38144188
Si      -0.55134787      -1.33052106       6.64934267
Si       6.33819143       0.40309965      10.97441292
Si      -0.39562925       1.30574094       9.23485908
Si       4.21986957       0.38720771       2.26711151
Si      -0.90290410       1.56870464       2.84658484
Si       4.02692347      -2.39587830      14.07677000
Si       4.97314855      -0.85905330      11.03251310
Si       4.38501100       3.87040830       2.23389805
Si       2.06638731      -0.11855425       0.65396063
Si       5.08084369       1.55107238      10.35828077
Si       5.21031670      -0.03582941       9.47382739
Si       1.03724836      -1.17471759       5.60910156
Si       3.60143553       0.95320322       0.64868831
Si       3.83885665      -0.65888591       0.74933296
22
Lattice="6.715930970258929 -0.4802334892177158 -0.10721216898295374 -2.093621390592473 6.845230180274014 -2.874087420231782 -0.9254797943351553 -4.329391381944369 14.211603749315431" Properties=species:S:1:pos:R:3 unique_starting_index=51 config_type=initial n_minim_iter=3 stress="-0.014711703750534785 0.0005600387937774687 -0.0006663984815482068 0.0005600387937774687 0.006522111948706214 0.007567824833196854 -0.0006663984815482068 0.007567824833196854 -0.04752342521854572" pbc="T T T"
Si       4.03807632       5.70456373       1.89870680
Si      -0.72861413      -0.01471065       7.91942797
Si       1.07851014       6.83339864      -3.73429188
Si      -2.05552753       2.60579539       1.73454544
Si       0.17785437       0.32891992       6.32140003
Si       5.09207688      -0.32821315       6.16959517
Si      -1.33268893       1.00361120       1.01904017
Si       0.23893058       0.21720573       0.37922816
Si      -0.55495759      -1.33670097       6.61906806
Si       6.32034963       0.39839917      10.91530855
Si      -0.40059693       1.30237216       9.19061237
Si       4.21124994       0.38586264       2.25322771
Si      -0.90421611       1.56858258       2.83174983
Si       4.00973033      -2.40620219      14.00883596
Si       4.95828197      -0.86609413      10.97866585
Si       4.37720685       3.87072650       2.21670260
Si       2.06535697      -0.11853459       0.64828325
Si       5.06534493       1.54795446      10.30342843
Si       5.19526015      -0.04269419       9.42433895
Si       1.03108140      -1.17920057       5.58216983
Si       3.59528841       0.95468126       0.64075813
Si       3.83253790      -0.65686751       0.74269754
22
Lattice="6.7250888960379855 -0.47771625262736966 -0.11837737605093836 -2.088383713742743 6.863373762145664 -2.9149110442985875 -0.9558474426085851 -4.399199117387983 14.29980679120901" Properties=species:S:1:pos:R:3 unique_starting_index=51 config_type=initial n_minim_iter=4 stress="0.015673886052149647 -0.004250046672693085 -0.010926070547292834 -0.004250046672693085 0.009343910800340229 -0.018778397738264785 -0.010926070547292834 -0.018778397738264785 0.00032554917667966174" pbc="T T T"
Si       4.03932906       5.70141838       1.87670249
Si      -0.74077642      -0.05058188       7.95232692
Si       1.08632790       6.85955494      -3.77837387
Si      -2.05754026       2.59615752       1.73722416
Si       0.16654437       0.30620399       6.34732698
Si       5.08805713      -0.35334114       6.19181331
Si      -1.34053274       0.98775778       1.02087262
Si       0.23307741       0.21896077       0.37934904
Si      -0.56655598      -1.37227764       6.66031965
Si       6.30704040       0.35363367      10.94710750
Si      -0.41552060       1.26671210       9.22970608
Si       4.21038329       0.37172813       2.25720969
Si      -0.91544578       1.55830688       2.83588780
Si       3.98465308      -2.47115098      14.08404404
Si       4.94813087      -0.91712398      11.03755934
Si       4.38025710       3.85111431       2.19556291
Si       2.07942546      -0.11967273       0.64337475
Si       5.04965709       1.50742101      10.33106580
Si       5.18218921      -0.09273522       9.45872247
Si       1.01890195      -1.20618273       5.61252542
Si       3.59826617       0.95754964       0.62480956
Si       3.83971388      -0.64843443       0.73967148
22
Lattice="6.693201167512041 -0.46511787998246057 -0.10312547417806323 -2.074771057940098 6.827489038125025 -2.9109428554933414 -0.9230024178159936 -4.346568749116854 14.330346357610114" Properties=species:S:1:pos:R:3 unique_starting_index=51 config_type=initial n_minim_iter=5 stress="-0.052439105420227464 0.00866109003875086 0.01618987141125121 0.00866109003875086 -0.007264153202537886 0.010162222117142366 0.01618987141125121 0.010162222117142366 0.018238192416794093" pbc="T T T"
Si       4.03255127       5.69005638       1.91153968
Si      -0.71353549      -0.02612481       7.97415602
Si       1.07890372       6.82782707      -3.76659933
Si      -2.03594885       2.58011529       1.74576627
Si       0.18226275       0.32774079       6.36697931
Si       5.08066035      -0.32533200       6.22387306
Si      -1.33640609       0.97551197       1.02329083
Si       0.23479203       0.22049393       0.38026864
Si      -0.54629368      -1.35497494       6.67569972
Si       6.30553673       0.39614430      10.99290745
Si      -0.38708442       1.28995964       9.26009721
Si       4.19496360       0.38001023       2.27781632
Si      -0.90632987       1.56066364       2.84305177
Si       3.99515824      -2.41767380      14.13796880
Si       4.95671511      -0.87634900      11.09432070
Si       4.37134288       3.84480962       2.22122998
Si       2.07671425      -0.11176400       0.64602775
Si       5.05113025       1.54182824      10.37643683
Si       5.18127825      -0.06592013       9.50037763
Si       1.02281221      -1.18634629       5.63009551
Si       3.58661525       0.96792819       0.63608889
Si       3.82717967      -0.62905214       0.74721463
22
Lattice="6.742856692570217 -0.4636550255324517 -0.1092982112068922 -2.0880219201186585 6.8000343697343295 -2.9050321375713315 -0.9426968550272795 -4.328365072699329 14.31311695376207" Properties=species:S:1:pos:R:3 unique_starting_index=51 config_type=initial n_minim_iter=6 stress="0.007860441405284817 -0.015448604330787215 -0.0009218427965727867 -0.015448604330787215 -0.023480428167805278 0.009321089010778176 -0.0009218427965727867 0.009321089010778176 -0.008003875622507218" pbc="T T T"
Si       4.05626228       5.66198930       1.91179719
Si      -0.71968607      -0.01759318       7.96553436
Si       1.08343923       6.80297307      -3.76134223
Si      -2.04722100       2.55516367       1.74680423
Si       0.17796083       0.33485205       6.35632084
Si       5.11402645      -0.32148875       6.21287458
Si      -1.35780991       0.95870301       1.02432093
Si       0.24220175       0.21979535       0.37678686
Si      -0.55080099      -1.35676803       6.66626165
Si       6.34198170       0.40001751      10.96569755
Si      -0.39699597       1.28957747       9.24620892
Si       4.21907157       0.37314666       2.27320335
Si      -0.92285798       1.55722423       2.83510199
Si       4.00875621      -2.40696636      14.12648228
Si       4.99181497      -0.87305667      11.09515127
Si       4.39973998       3.82478129       2.21291662
Si       2.09490157      -0.10734697       0.63643818
Si       5.07286705       1.54052989      10.35246818
Si       5.21065640      -0.07696737       9.48302080
Si       1.01953223      -1.18399097       5.62291832
Si       3.61517094       0.97384814       0.63057906
Si       3.86208966      -0.61548807       0.73790620
22
Lattice="6.74137468083073 -0.42982115075875993 -0.10786557045597091 -2.052290121537536 6.828887667187453 -2.9338849771252677 -0.966652041937455 -4.409186704036817 14.337471465294193" Properties=species:S:1:pos:R:3 unique_starting_index=51 config_type=initial n_minim_iter=7 stress="0.0012812685540371429 0.01785722358641583 0.00782765507902199 0.01785722358641583 0.012531668479496568 -0.012594440165232817 0.00782765507902199 -0.012594440165232817 -0.004358237014373373" pbc="T T T"
Si       4.08358629       5.69510732       1.89419429
Si      -0.71595907      -0.04945014       7.96841751
Si       1.11533681       6.85713521      -3.79382850
Si      -2.02991911       2.53915661       1.73892584
Si       0.17881215       0.31669054       6.35594486
Si       5.11449231      -0.31959914       6.21837788
Si      -1.35457871       0.94129609       1.02048044
Si       0.24758217       0.22164685       0.37610977
Si      -0.55434290      -1.39605246       6.67468765
Si       6.34486243       0.39229258      10.96572022
Si      -0.39102664       1.25883900       9.24300067
Si       4.21752719       0.38427467       2.27396538
Si      -0.91936718       1.54821011       2.82722940
Si       3.99470717      -2.45199226      14.14876913
Si       4.99421860      -0.89508728      11.11735596
Si       4.41922990       3.85364974       2.19834557
Si       2.09227360      -0.09528302       0.63204842
Si       5.07846793       1.53311913      10.34471260
Si       5.21142821      -0.09550752       9.48833567
Si       1.00817655      -1.20888189       5.63073491
Si       3.62038732       0.99930153       0.62743297
Si       3.86132519      -0.59732174       0.73531678
22
Lattice="6.732739143599696 -0.4375717993531123 -0.13361768598817358 -2.0464559514042966 6.825509088247144 -2.9302542773839675 -1.0150087359536557 -4.407430702509347 14.355398509207598" Properties=species:S:1:pos:R:3 unique_starting_index=51 config_type=initial n_minim_iter=8 stress="-0.033811154042136735 -0.007460332625944019 -0.03393682167519602 -0.007460332625944019 0.008394169396973107 -0.004356509476206576 -0.03393682167519602 -0.004356509476206576 0.010616094465935411" pbc="T T T"
Si       4.05845324       5.67752557       1.88706489
Si      -0.73787420      -0.04620577       7.97299095
Si       1.11218629       6.85939262      -3.80958779
Si      -2.03133700       2.52988747       1.75246096
Si       0.15116984       0.32146007       6.35847356
Si       5.08758055      -0.32455812       6.20801318
Si      -1.35643589       0.92550483       1.02471502
Si       0.25039521       0.22440990       0.37825345
Si      -0.57051530      -1.39737406       6.68515129
Si       6.29566172       0.38449246      10.94752962
Si      -0.42911863       1.26165622       9.24969292
Si       4.19635979       0.37516549       2.26096634
Si      -0.93736939       1.54662518       2.82964676
Si       3.93719913      -2.45602399      14.15657281
Si       4.95931362      -0.90021934      11.12998921
Si       4.39943135       3.84142393       2.18195371
Si       2.08266406      -0.08850023       0.61663381
Si       5.02891556       1.52315066      10.32167884
Si       5.17123400      -0.11397278       9.48213798
Si       0.97765254      -1.21629629       5.63254734
Si       3.60663268       0.99760815       0.61691643
Si       3.85282979      -0.60085099       0.70935081
22
Lattice="6.796422340125344 -0.42696293932378876 -0.08493687256201435 -2.079147900841838 6.790798940739353 -2.9248795016933933 -0.9247439295270562 -4.368657086000727 14.292693812834694" Properties=species:S:1:pos:R:3 unique_starting_index=51 config_type=initial n_minim_iter=9 stress="0.015128053470828132 0.005389847217549288 0.013524238222220122 0.005389847217549288 0.0001282852166311586 0.009603150925979992 0.013524238222220122 0.009603150925979992 -0.0037878118690957262" pbc="T T T"
Si       4.11009229       5.65321865       1.93054997
Si      -0.67516309      -0.02927895       7.93352944
Si       1.09170469       6.84380522      -3.78782104
Si      -2.02699704       2.51228512       1.74444239
Si       0.19527363       0.33998267       6.33475432
Si       5.18792361      -0.30279220       6.22798112
Si      -1.35757975       0.89852296       1.01053122
Si       0.26186756       0.22937492       0.38148371
Si      -0.51754405      -1.38214687       6.66059185
Si       6.44246524       0.41426835      10.95056163
Si      -0.36734342       1.27925756       9.21221062
Si       4.24491311       0.37853623       2.28394778
Si      -0.93203040       1.54104059       2.81232791
Si       4.07642201      -2.41575007      14.14806862
Si       5.11146234      -0.86676200      11.15909170
Si       4.46251394       3.82761459       2.21025247
Si       2.10344669      -0.06966993       0.61715190
Si       5.15311806       1.54047768      10.30661798
Si       5.29913410      -0.10696179       9.49404320
Si       1.01390740      -1.21040215       5.61897497
Si       3.63748915       1.00187802       0.64660386
Si       3.89012278      -0.59362873       0.71468122
22
Lattice="6.802196641699742 -0.4337392668923202 -0.0734715846391529 -2.0916196346651237 6.81000338359424 -2.9392896097272647 -0.8982040232547028 -4.393282707416081 14.311571810081933" Properties=species:S:1:pos:R:3 unique_starting_index=51 config_type=initial n_minim_iter=10 stress="0.0018012931874117177 -0.01133922447912611 0.011972533070432086 -0.01133922447912611 0.01824922967718889 0.0024562515714780923 0.011972533070432086 0.0024562515714780923 0.005048246357209724" pbc="T T T"
Si       4.10175744       5.65291902       1.94078964
Si      -0.65785120      -0.03396174       7.94803158
Si       1.06972524       6.88333045      -3.80583092
Si      -2.02732678       2.51289343       1.74531479
Si       0.20257186       0.34129439       6.33094204
Si       5.20840943      -0.31135560       6.24798127
Si      -1.36741079       0.88818763       1.00818304
Si       0.27332316       0.22950274       0.37564232
Si      -0.49667914      -1.39113486       6.67580884
Si       6.46984315       0.40463899      10.96675179
Si      -0.35845721       1.27765522       9.20988939
Si       4.24514037       0.36837323       2.28491847
Si      -0.93498765       1.53169788       2.81472785
Si       4.10735398      -2.43890208      14.18544544
Si       5.16076621      -0.87736707      11.20989694
Si       4.46549850       3.81720383       2.21422196
Si       2.10962221      -0.05945041       0.60849184
Si       5.16816558       1.53115493      10.31720913
Si       5.33537315      -0.13748291       9.51928115
Si       1.01494005      -1.22879320       5.62660542
Si       3.63728909       0.99436093       0.65822903
Si       3.88021857      -0.60099361       0.70371472
22
Lattice="6.837739698706167 -0.375659505697112 -0.09525417770398809 -2.039106412785154 6.742645950907678 -2.924651262370575 -0.9830860156026653 -4.344869101501448 14.33002745386182" Properties=species:S:1:pos:R:3 unique_starting_index=51 config_type=initial n_minim_iter=11 stress="0.02613820950755283 0.030335875296525035 -0.01952895033340842 0.030335875296525035 -0.017928737259335054 0.01763631098120428 -0.01952895033340842 0.01763631098120428 0.009889767648621553" pbc="T T T"
Si       4.15499567       5.64594690       1.94876695
Si      -0.68354442      -0.02692304       7.96547097
Si       1.13257012       6.85916626      -3.81255427
Si      -2.02750099       2.47388194       1.76108742
Si       0.18409825       0.35790040       6.32905774
Si       5.22307366      -0.25213207       6.24852525
Si      -1.37969951       0.86537955       1.01266363
Si       0.27279664       0.23429932       0.37119349
Si      -0.52398332      -1.37269276       6.69264883
Si       6.47924096       0.48741344      10.95478138
Si      -0.38110636       1.29593442       9.22512485
Si       4.25985130       0.39854221       2.26422569
Si      -0.94153263       1.50385196       2.83131801
Si       4.07105517      -2.36269958      14.20414551
Si       5.17607854      -0.79861718      11.23941314
Si       4.51180313       3.82754596       2.21590805
Si       2.12233261      -0.03134379       0.59097278
Si       5.17708616       1.58331536      10.31745517
Si       5.35491058      -0.08687308       9.53166855
Si       0.98575372      -1.20949126       5.62745780
Si       3.66965321       1.01219331       0.65656533
Si       3.88143243      -0.56260167       0.67722229
22
Lattice="6.853533935056729 -0.3907681828784235 -0.06582195494176073 -2.071587935477946 6.755567362719356 -2.9534400722945855 -0.9142379809736696 -4.372932993835973 14.365515963182627" Properties=species:S:1:pos:R:3 unique_starting_index=51 config_type=initial n_minim_iter=12 stress="0.01911894150610424 0.0043653101043036 -0.004005568942063844 0.0043653101043036 6.68533365488952e-05 0.007118689730972972 -0.004005568942063844 0.007118689730972972 0.015208188739778177" pbc="T T T"
Si       4.14900704       5.62998222       1.96331714
Si      -0.64803689      -0.04395763       7.98172320
Si       1.09082879       6.88595915      -3.84147758
Si      -2.03687127       2.46299587       1.75011019
Si       0.20592142       0.34819186       6.33129728
Si       5.26837116      -0.27281668       6.29139207
Si      -1.38742229       0.85890337       1.00236344
Si       0.26567873       0.23752742       0.36870060
Si      -0.48606188      -1.38667832       6.71257420
Si       6.54209317       0.46330832      10.99123180
Si      -0.34802445       1.29286109       9.23744775
Si       4.27526704       0.37639500       2.27426628
Si      -0.94013146       1.48150910       2.83840112
Si       4.14976145      -2.40159258      14.26790142
Si       5.26610445      -0.82181140      11.31369681
Si       4.51838721       3.81490392       2.24074741
Si       2.12942849      -0.02739645       0.58991799
Si       5.22842555       1.55281316      10.35581364
Si       5.42959004      -0.12792206       9.58904034
Si       1.00783815      -1.23119685       5.64195412
Si       3.68503685       0.99702339       0.67239662
Si       3.88672105      -0.56903376       0.68634309
22
Lattice="6.8685431564740815 -0.3782009475174701 -0.06075666287292674 -2.067342019757059 6.7334130289684815 -2.953594424296553 -0.9114433768417397 -4.348311907928122 14.390128185454708" Properties=species:S:1:pos:R:3 unique_starting_index=51 config_type=initial n_minim_iter=13 stress="0.021049943679614092 0.005219650345527921 -0.008702357271984849 0.005219650345527921 -0.0004891288624096519 0.008040795498709289 -0.008702357271984849 0.008040795498709289 0.022318682572711315" pbc="T T T"
Si       4.15894488       5.62300029       1.98003557
Si      -0.63796732      -0.03155051       8.00215257
Si       1.09292802       6.88680512      -3.84539240
Si      -2.04453885       2.45078379       1.75968417
Si       0.20456543       0.35389495       6.33737692
Si       5.29241732      -0.25269804       6.31947665
Si      -1.39241989       0.84920684       0.99646958
Si       0.26131337       0.24114809       0.36595008
Si      -0.47841667      -1.38012494       6.72719120
Si       6.57378554       0.50104079      11.00565027
Si      -0.34109540       1.31092802       9.24723038
Si       4.28799654       0.37277647       2.27513012
Si      -0.94674197       1.45414439       2.85437546
Si       4.17270004      -2.37407414      14.30721906
Si       5.31606949      -0.78639468      11.36680518
Si       4.53169441       3.80978631       2.26440265
Si       2.11760957      -0.01146133       0.58256693
Si       5.25053523       1.57095282      10.38720477
Si       5.47447414      -0.11574062       9.62952152
Si       1.00903511      -1.22646658       5.64632570
Si       3.69875318       0.99322375       0.66467567
Si       3.89533600      -0.55117140       0.68135442
22
Lattice="6.883761065535072 -0.36365612764884736 -0.052753794803113235 -2.0613870164482675 6.726313793676957 -2.9555997094408397 -0.9053888594376124 -4.343998587177242 14.396977302262297" Properties=species:S:1:pos:R:3 unique_starting_index=51 config_type=initial n_minim_iter=14 stress="0.019206784808704344 -9.394283746027597e-05 -0.010378315250490483 -9.394283746027597e-05 0.0034245787536646534 -0.00010625687392162562 -0.010378315250490483 -0.00010625687392162562 0.031876472586426265" pbc="T T T"
Si       4.17290358       5.62900550       1.98951347
Si      -0.62179013      -0.02459252       8.00597722
Si       1.09358373       6.89225335      -3.85814060
Si      -2.05568437       2.43371984       1.76500092
Si       0.20260720       0.34912032       6.34115376
Si       5.31648963      -0.23587827       6.34509407
Si      -1.39734367       0.84614277       0.99004734
Si       0.26053472       0.24174751       0.35890965
Si      -0.47290233      -1.37802226       6.73703136
Si       6.62730303       0.53978790      11.02016637
Si      -0.32805415       1.33452086       9.24362889
Si       4.30487098       0.36497525       2.27839119
Si      -0.96111824       1.41886859       2.86283353
Si       4.20230343      -2.35966926      14.32381722
Si       5.37097821      -0.75906134      11.40536694
Si       4.54622115       3.80954965       2.28681764
Si       2.11379898       0.00647107       0.58106471
Si       5.27551990       1.58442316      10.40316742
Si       5.52210259      -0.10761075       9.64997033
Si       1.01323750      -1.22635123       5.63871914
Si       3.70966830       0.99938652       0.65545165
Si       3.89763571      -0.52804848       0.67198621
22
Lattice="6.89465121668837 -0.3370226983083379 -0.05463680466000862 -2.0375766214775974 6.713630525116578 -2.930926778509934 -0.9263879555346753 -4.312425046935506 14.353062432587729" Properties=species:S:1:pos:R:3 unique_starting_index=51 config_type=initial n_minim_iter=15 stress="0.018928481698252047 -0.0022003846636691497 -0.009834088428144967 -0.0022003846636691497 0.008012330435119853 0.0013267086951776969 -0.009834088428144967 0.0013267086951776969 0.03210770721048511" pbc="T T T"
Si       4.19531717       5.64958659       2.00082273
Si      -0.61258223       0.00484001       7.99707057
Si       1.11554516       6.89962226      -3.84524074
Si      -2.06631216       2.41868947       1.77368385
Si       0.19561185       0.35717781       6.32784390
Si       5.32291692      -0.19541624       6.34230938
Si      -1.39812332       0.84423583       0.98559672
Si       0.25392840       0.24484644       0.35561184
Si      -0.48050566      -1.36188685       6.72499189
Si       6.65476740       0.59960008      10.99369847
Si      -0.32838238       1.37116636       9.21123266
Si       4.31322527       0.36941872       2.26843551
Si      -0.97856839       1.38858559       2.86519129
Si       4.20581933      -2.30592115      14.28392449
Si       5.40680930      -0.69474566      11.39625891
Si       4.56502993       3.82531264       2.30425327
Si       2.11995400       0.03083326       0.57886836
Si       5.29123504       1.62614459      10.37813893
Si       5.55347167      -0.06196484       9.63343817
Si       1.00346894      -1.21343011       5.60801321
Si       3.71605200       1.01767333       0.64600645
Si       3.90295342      -0.48994899       0.66121594
22
Lattice="6.900795007845394 -0.3083856184680314 -0.04869933128717245 -2.0136475196872428 6.702245939396755 -2.9130019963744105 -0.9320152461329037 -4.290258364494113 14.311234552821348" Properties=species:S:1:pos:R:3 unique_starting_index=51 config_type=initial n_minim_iter=16 stress="0.013393780123012636 -0.002635952232988046 -0.0022433529123285717 -0.002635952232988046 0.01243262649045444 -0.0008162343684058179 -0.0022433529123285717 -0.0008162343684058179 0.027933199806355728" pbc="T T T"
Si       4.21984367       5.66863237       2.01381110
Si      -0.59068653       0.01833595       7.97744159
Si       1.13498361       6.91202153      -3.83302861
Si      -2.07674093       2.40694947       1.77773532
Si       0.19943082       0.36083417       6.31243120
Si       5.32752720      -0.15697831       6.34287215
Si      -1.40093932       0.84200017       0.98263080
Si       0.26155996       0.24379805       0.34912088
Si      -0.48055072      -1.34841330       6.71612933
Si       6.68662706       0.64920095      10.97176750
Si      -0.31670381       1.40480743       9.18599549
Si       4.31584551       0.37322201       2.26465634
Si      -0.99022720       1.35515728       2.86587743
Si       4.21901406      -2.25861367      14.24953860
Si       5.45185281      -0.63443102      11.39053832
Si       4.58847409       3.84083604       2.32384801
Si       2.12318391       0.05489486       0.57538986
Si       5.31535454       1.66480193      10.36301176
Si       5.58878050      -0.01641252       9.62908675
Si       0.99294892      -1.20678001       5.57768911
Si       3.72141069       1.04201966       0.63915555
Si       3.91366509      -0.45255478       0.65673067
22
Lattice="6.9083416910897 -0.2789594864584519 -0.049256847188819015 -1.9867396905079777 6.686623777020727 -2.8876838986002236 -0.951344412813415 -4.2557486452950055 14.266387831500348" Properties=species:S:1:pos:R:3 unique_starting_index=51 config_type=initial n_minim_iter=17 stress="0.011240842968367153 -0.005665604300503062 0.00011571020137413845 -0.005665604300503062 0.01905417894343119 0.0002449008286708374 0.00011571020137413845 0.0002449008286708374 0.023728627011704796" pbc="T T T"
Si       4.24337067       5.68674761       2.02818453
Si      -0.57485913       0.03858426       7.96651521
Si       1.15913724       6.91979713      -3.80780037
Si      -2.09217664       2.39647422       1.78370725
Si       0.20254655       0.37052541       6.29102432
Si       5.32278864      -0.11218108       6.33547787
Si      -1.39750900       0.83800561       0.98203481
Si       0.26242190       0.24615888       0.34786302
Si      -0.48620772      -1.33540203       6.70275891
Si       6.71854813       0.71764277      10.94619783
Si      -0.31259307       1.43994041       9.16236058
Si       4.31127453       0.38124184       2.26147429
Si      -1.00245150       1.32246167       2.86903890
Si       4.21549597      -2.19762070      14.20985089
Si       5.48565983      -0.56534468      11.37821048
Si       4.61382031       3.86218151       2.34506757
Si       2.13038486       0.07739360       0.56518022
Si       5.33421088       1.71531533      10.34790625
Si       5.61384219       0.03744412       9.61558616
Si       0.97229415      -1.19879732       5.54388928
Si       3.72821460       1.07251417       0.62652793
Si       3.92257824      -0.42375894       0.63965924
22
Lattice="6.909113603322261 -0.24488372235882877 -0.053714252577824875 -1.9511825687116027 6.671426877504685 -2.8551234559580267 -0.9812873936879227 -4.219945574325697 14.19992256503258" Properties=species:S:1:pos:R:3 unique_starting_index=51 config_type=initial n_minim_iter=18 stress="0.010892983695813643 -0.008768138008286118 0.002146827656238633 -0.008768138008286118 0.02485903799430033 -0.0014192649988179035 0.002146827656238633 -0.0014192649988179035 0.01408070340691077" pbc="T T T"
Si       4.26026599       5.71305460       2.03858767
Si      -0.56442658       0.06231097       7.94170646
Si       1.18580964       6.92992677      -3.78834636
Si      -2.10344880       2.38632228       1.79075652
Si       0.20025103       0.38199985       6.25809114
Si       5.31575748      -0.06244285       6.31992479
Si      -1.39849510       0.83186733       0.98669598
Si       0.26132418       0.25361237       0.35306956
Si      -0.49624112      -1.32118456       6.68234028
Si       6.74204184       0.79533191      10.90031596
Si      -0.30932919       1.47328309       9.12579584
Si       4.29628085       0.39926011       2.24617808
Si      -1.01340285       1.28949855       2.86786587
Si       4.19349366      -2.12828890      14.14794395
Si       5.50676795      -0.48993772      11.34600706
Si       4.63343585       3.87942005       2.35823449
Si       2.13397847       0.10237305       0.55488615
Si       5.34480327       1.77798945      10.31588378
Si       5.62721282       0.09587926       9.57900159
Si       0.95040965      -1.18935717       5.50142571
Si       3.73421163       1.10508284       0.61470753
Si       3.93898781      -0.39937839       0.62406537
22
Lattice="6.9130385715986655 -0.15914391956165722 -0.06008637466421264 -1.8666112138356388 6.608536292427284 -2.8027078020991043 -1.0459108656694804 -4.1370092983560705 14.115188971340604" Properties=species:S:1:pos:R:3 unique_starting_index=51 config_type=initial n_minim_iter=19 stress="0.01326361721840404 -0.00943777663878918 -0.0003979488662605134 -0.00943777663878918 0.024690506075082684 0.002234237686435235 -0.0003979488662605134 0.002234237686435235 0.010374375304913634" pbc="T T T"
Si       4.30336165       5.74949659       2.06539639
Si      -0.53830687       0.10672374       7.90887062
Si       1.26229209       6.92812820      -3.75662785
Si      -2.11411424       2.33786523       1.80810056
Si       0.19461308       0.40069011       6.21297468
Si       5.31323957       0.04809829       6.31369757
Si      -1.40192623       0.81595111       1.00618689
Si       0.26700877       0.27019200       0.36482627
Si      -0.51525536      -1.29356355       6.66143848
Si       6.79352797       0.95410421      10.84596527
Si      -0.29355454       1.52593663       9.07846266
Si       4.26830010       0.45059757       2.22766734
Si      -1.03289910       1.21419861       2.87224467
Si       4.14859331      -1.97232898      14.07513213
Si       5.55682362      -0.32417554      11.32055807
Si       4.68006486       3.92225535       2.39786346
Si       2.15585888       0.15823060       0.54407196
Si       5.37048349       1.90776645      10.28578942
Si       5.65945237       0.22706156       9.54431581
Si       0.91052358      -1.16634976       5.43754990
Si       3.73706348       1.16007498       0.58056576
Si       3.96678589      -0.34313362       0.59044867
22
Lattice="6.923060906608773 -0.0893028541290121 -0.062206558370629536 -1.8004689969706247 6.567732756576447 -2.7616622425054156 -1.093899438134432 -4.081458639293893 14.037537593678282" Properties=species:S:1:pos:R:3 unique_starting_index=51 config_type=initial n_minim_iter=20 stress="0.025389003659656188 -0.009451183883751687 -0.002033164229429813 -0.009451183883751687 0.0319862901033398 0.008489938389915986 -0.002033164229429813 0.008489938389915986 0.00702230470240819" pbc="T T T"
Si       4.33037633       5.78675451       2.08570030
Si      -0.50890299       0.14239251       7.88594678
Si       1.32548266       6.92327713      -3.73455828
Si      -2.13122892       2.30561239       1.81957075
Si       0.18819669       0.41072510       6.16602945
Si       5.31972295       0.13972576       6.30570606
Si      -1.39765561       0.80193077       1.02356846
Si       0.28434389       0.29306418       0.38096253
Si      -0.52256618      -1.28061860       6.64057589
Si       6.84112545       1.07233786      10.78773138
Si      -0.27204275       1.57573011       9.03933776
Si       4.23948349       0.49405105       2.21445134
Si      -1.05587764       1.13925677       2.87502147
Si       4.11257613      -1.85041128      14.01362103
Si       5.61939593      -0.18508540      11.29570986
Si       4.71679431       3.95328762       2.42637786
Si       2.17416987       0.19843677       0.54187568
Si       5.40361398       2.01476049      10.24961061
Si       5.70625767       0.33942305       9.51238126
Si       0.88345634      -1.15792657       5.38093703
Si       3.75323511       1.21454105       0.55011358
Si       3.98561614      -0.29683731       0.55185282
22
Lattice="6.933703509785719 -0.02409019803622977 -0.059888976342638435 -1.740850723897853 6.533443107767158 -2.733704956395748 -1.1304463844807402 -4.0433326184440626 13.982954087737435" Properties=species:S:1:pos:R:3 unique_starting_index=51 config_type=initial n_minim_iter=21 stress="0.036552941828561586 -0.009338308119130525 -0.002375079798098779 -0.009338308119130525 0.02948489910767444 0.016630461472215394 -0.002375079798098779 0.016630461472215394 0.00946113439461103" pbc="T T T"
Si       4.35192725       5.81544164       2.10835387
Si      -0.47417418       0.16087295       7.86281176
Si       1.39241843       6.92059762      -3.71217211
Si      -2.14896079       2.27856539       1.82856391
Si       0.18116871       0.41136989       6.12853113
Si       5.33220682       0.22197014       6.30719750
Si      -1.39255028       0.77901771       1.03085339
Si       0.30779614       0.32253710       0.40023951
Si      -0.51612428      -1.26445230       6.63306510
Si       6.90125236       1.17629064      10.76009792
Si      -0.24911075       1.60948765       8.99426314
Si       4.20499655       0.53355403       2.18928234
Si      -1.08054938       1.06282617       2.88351528
Si       4.08401021      -1.74682315      13.97897759
Si       5.68087568      -0.06878201      11.28640512
Si       4.75211276       3.99159881       2.44785955
Si       2.19310293       0.22559231       0.54169246
Si       5.44267216       2.11268597      10.22918593
Si       5.75170297       0.43659762       9.49007169
Si       0.85496561      -1.16543381       5.33745549
Si       3.77474222       1.26292159       0.53221401
Si       4.00861757      -0.24437955       0.52779693
