8
Lattice="5.461982446492587 -1.3966505937342117 -0.3008113792488295 -0.28066354367442736 5.869913912648812 0.6580835621258022 0.21822250396931478 3.2356151469246313 6.3960407552005645" Properties=species:S:1:pos:R:3 unique_starting_index=84 config_type=initial n_minim_iter=1 energy=-1303.3752272471982 free_energy=-1303.3752272471982 pbc="T T T"
Si       3.62798431       2.48089005       0.48673699
Si       1.77155710       5.22798841       6.26657594
Si       3.41795964       0.25119265      -0.24863718
Si       1.98158177       7.45768582       7.00195012
Si      -0.00092661       8.29644813       6.09084275
Si       5.40046801      -0.58756966       0.66247019
Si       5.45272156       3.25746594       4.50601881
Si      -0.05318015       4.45141253       2.24729413
8
Lattice="5.452238060733574 -1.3998440422062057 -0.3020833450484441 -0.27923638895771874 5.8826775262445175 0.6807430076656129 0.22428005834254808 3.2607718555233727 6.457693619866615" Properties=species:S:1:pos:R:3 unique_starting_index=84 config_type=initial n_minim_iter=2 stress="0.0042265981530317425 -0.0005038635924293738 0.0005051752048392523 -0.0005038635924293738 0.0055828896409437865 -0.0004914839883999977 0.0005051752048392523 -0.0004914839883999977 0.0014861161462923552" pbc="T T T"
Si       3.62163060       2.48746350       0.50327161
Si       1.77565113       5.25614184       6.33308167
Si       3.41270737       0.25193669      -0.24741161
Si       1.98457436       7.49166865       7.08376489
Si       0.00517700       8.32868611       6.16462528
Si       5.39210473      -0.58508077       0.67172800
Si       5.44831016       3.27773439       4.55864694
Si      -0.05102843       4.46587095       2.27770634
8
Lattice="5.4238139588455265 -1.3927157388472462 -0.3057476593122857 -0.2747534471676208 5.862323535807555 0.6990416869580318 0.2263642363435799 3.265552667046123 6.495199036621973" Properties=species:S:1:pos:R:3 unique_starting_index=84 config_type=initial n_minim_iter=3 stress="-0.0028280370667165687 -0.0011613557615966761 0.00039530388974368797 -0.0011613557615966761 -0.0005181627468765767 0.0007024989669490247 0.00039530388974368797 0.0007024989669490247 0.0008289591755358888" pbc="T T T"
Si       3.60367852       2.48155668       0.51528682
Si       1.77174622       5.25360378       6.37320625
Si       3.39672756       0.25350525      -0.24837022
Si       1.97869719       7.48165521       7.13686329
Si       0.01040899       8.31211646       6.21376898
Si       5.36501576      -0.57695600       0.67472408
Si       5.42403315       3.28065222       4.59063342
Si      -0.04860841       4.45450825       2.29785965
8
Lattice="5.4247659840135505 -1.3676601110842501 -0.31297220903971495 -0.2533149279072541 5.842033141500637 0.7102865584915407 0.2340856515599583 3.2646905076443105 6.522820206764822" Properties=species:S:1:pos:R:3 unique_starting_index=84 config_type=initial n_minim_iter=4 stress="0.00011108245706335384 0.002499650628184718 -0.001271641997947441 0.002499650628184718 -0.0018807517599913387 -6.79027404826106e-05 -0.001271641997947441 -6.79027404826106e-05 0.002148575387747019" pbc="T T T"
Si       3.61442523       2.48797336       0.52604346
Si       1.79111148       5.25109018       6.39409109
Si       3.40510028       0.27046442      -0.25590316
Si       2.00043643       7.46859912       7.17603772
Si       0.03635873       8.28876909       6.24715840
Si       5.36917798      -0.54970555       0.67297615
Si       5.44074521       3.29947902       4.61133956
Si      -0.03520851       4.43958452       2.30879499
8
Lattice="5.42070316541279 -1.360948771165186 -0.3046208227907127 -0.24818246068263078 5.821961653861652 0.743646727249581 0.2554605750508129 3.286918767930712 6.560916579789234" Properties=species:S:1:pos:R:3 unique_starting_index=84 config_type=initial n_minim_iter=5 stress="7.856335223843163e-05 0.002258522694949907 0.00027853137542354587 0.002258522694949907 0.00026995920638386823 -0.00016389976270222024 0.00027853137542354587 -0.00016389976270222024 -0.0008355003553475272" pbc="T T T"
Si       3.60925095       2.48620375       0.58150029
Si       1.81873033       5.26172790       6.41844219
Si       3.41198027       0.28615872      -0.26117355
Si       2.01600101       7.46177293       7.26111604
Si       0.05435537       8.27410457       6.30967764
Si       5.37362591      -0.52617292       0.69026485
Si       5.45954582       3.32519886       4.67245676
Si      -0.03156454       4.42273279       2.32748572
8
Lattice="5.433151784155644 -1.369540079142306 -0.31801933808242083 -0.2689768638594704 5.777961870667221 0.7789349951199692 0.24027748603529425 3.2917558992393086 6.6310385924147175" Properties=species:S:1:pos:R:3 unique_starting_index=84 config_type=initial n_minim_iter=6 stress="0.0017199437583480081 -0.00023914666970545467 -0.0016712511429603004 -0.00023914666970545467 -6.993555463245138e-05 -0.0010680611619314866 -0.0016712511429603004 -0.0010680611619314866 0.0014207218168246559" pbc="T T T"
Si       3.59613895       2.45967651       0.62956880
Si       1.80831346       5.24050118       6.46238545
Si       3.41894165       0.28379827      -0.28000222
Si       1.98551075       7.41637942       7.37195647
Si       0.01665844       8.22204777       6.40143923
Si       5.38779397      -0.52187008       0.69051502
Si       5.45868249       3.31444246       4.73091761
Si      -0.05423008       4.38573523       2.36103664
8
Lattice="5.419557587582974 -1.348114800748526 -0.29117556032907577 -0.25259010550511946 5.7160121483628155 0.8746126220872396 0.30549656969621697 3.3538862886026526 6.735422119393773" Properties=species:S:1:pos:R:3 unique_starting_index=84 config_type=initial n_minim_iter=7 stress="0.001272890571917464 -0.001361318012069956 0.0014174939016026822 -0.001361318012069956 0.0028178430693026513 0.0022254379123554163 0.0014174939016026822 0.0022254379123554163 0.0007843517684240047" pbc="T T T"
Si       3.57470072       2.45020478       0.78321352
Si       1.89776333       5.27157885       6.53564567
Si       3.40808629       0.29918024      -0.27456014
Si       2.06437777       7.42260340       7.59341932
Si       0.07576441       8.18950349       6.58323758
Si       5.39669964      -0.46771986       0.73562160
Si       5.50594408       3.37895650       4.87475893
Si      -0.03348003       4.34282714       2.44410025
8
Lattice="5.392883292492176 -1.3361752464397885 -0.25421264658359616 -0.24494464400469557 5.673107967682445 0.8739018173786685 0.3489070406113376 3.3328354344660083 6.726382381614703" Properties=species:S:1:pos:R:3 unique_starting_index=84 config_type=initial n_minim_iter=8 stress="-0.00286121574829484 -0.001690446101100033 0.0005466343909510071 -0.001690446101100033 0.0005951559225751601 0.000376428947303889 0.0005466343909510071 0.000376428947303889 0.001478130802503005" pbc="T T T"
Si       3.53440685       2.42532481       0.87110153
Si       1.96243884       5.24444334       6.47497002
Si       3.36781791       0.29617903      -0.25544969
Si       2.12902778       7.37358913       7.60152124
Si       0.11323054       8.11675543       6.58914158
Si       5.38361515      -0.44698727       0.75692997
Si       5.51243526       3.37511312       4.87700861
Si      -0.01558957       4.29465504       2.46906294
8
Lattice="5.407901696705861 -1.32631194229948 -0.2083495153229487 -0.23979164971731481 5.631357831102577 0.8825202311944415 0.4049303765079582 3.3279267564917907 6.674258417674894" Properties=species:S:1:pos:R:3 unique_starting_index=84 config_type=initial n_minim_iter=9 stress="-0.0014433715740264535 -0.0015447656060836009 0.0016104513355413058 -0.0015447656060836009 -0.004517680579791704 0.003245453270603992 0.0016104513355413058 0.003245453270603992 -0.006453666262168781" pbc="T T T"
Si       3.52584561       2.38938877       0.97333207
Si       2.04719482       5.24358387       6.37509707
Si       3.35708700       0.29129250      -0.21498532
Si       2.21595342       7.34168014       7.56341445
Si       0.16190617       8.06372728       6.57754663
Si       5.41113426      -0.43075464       0.77088251
Si       5.56480946       3.37517790       4.85051036
Si       0.00823096       4.25779474       2.49791877
8
Lattice="5.379239768926491 -1.3200195442760774 -0.19424242537805986 -0.23056533048695693 5.635035671102048 0.8525795398488368 0.41670527610834274 3.297110506917941 6.684295289506331" Properties=species:S:1:pos:R:3 unique_starting_index=84 config_type=initial n_minim_iter=10 stress="-0.00011100830508245853 0.0018886632107232473 -0.0019213014073944845 0.0018886632107232473 0.0024302607135215054 -0.0025691050100339887 -0.0019213014073944845 -0.0025691050100339887 -0.0004533285479606723" pbc="T T T"
Si       3.50728388       2.37639314       1.00176784
Si       2.05809583       5.23573349       6.34086456
Si       3.34380514       0.30281873      -0.20520196
Si       2.22157458       7.30930791       7.54783437
Si       0.18018838       8.03808576       6.57569794
Si       5.38519133      -0.42595912       0.76693446
Si       5.54614682       3.36163646       4.84609478
Si       0.01923289       4.25049017       2.49653763
8
Lattice="5.384627657936434 -1.3260536825315914 -0.1469695323491979 -0.24507461255228866 5.5777349828673275 0.8745273085557176 0.47007214801389824 3.2794973192603587 6.790931636606997" Properties=species:S:1:pos:R:3 unique_starting_index=84 config_type=initial n_minim_iter=11 stress="0.004514421822556721 0.000977228670650887 0.0009973661163602493 0.000977228670650887 -0.0009806056451519348 -0.0016748513186381506 0.0009973661163602493 -0.0016748513186381506 0.0032419817078386797" pbc="T T T"
Si       3.50694871       2.30596664       1.12657812
Si       2.10267649       5.22521197       6.39191129
Si       3.36310055       0.30849851      -0.15853752
Si       2.24652464       7.22268011       7.67702694
Si       0.21115790       7.96699371       6.72767049
Si       5.39846730      -0.43581509       0.79081893
Si       5.57976077       3.31213830       4.96385841
Si       0.02986442       4.21904032       2.55463100
8
Lattice="5.386805526084589 -1.3462808718744999 -0.16479124944495407 -0.2598815493407138 5.617617552117219 0.8562236278175075 0.43692774165017717 3.2809101333853015 6.77747867413923" Properties=species:S:1:pos:R:3 unique_starting_index=84 config_type=initial n_minim_iter=12 stress="0.005661469109125586 0.002551557378452986 -0.0024461583226272885 0.002551557378452986 0.000710700110521184 -0.006317851130301653 -0.0024461583226272885 -0.006317851130301653 0.003382721003788932" pbc="T T T"
Si       3.51571067       2.30365125       1.06939013
Si       2.04814105       5.24859556       6.39952092
Si       3.37674885       0.30375739      -0.15556087
Si       2.18710287       7.24848943       7.62447193
Si       0.17405417       8.02164213       6.70666300
Si       5.38979755      -0.46939531       0.76224805
Si       5.54893723       3.28889671       4.93566049
Si       0.01491449       4.26335010       2.53325056
8
Lattice="5.352892158737621 -1.3516683875777256 -0.19154781022883682 -0.25782878521862473 5.6400135489919885 0.9215364483396399 0.4236459552350254 3.3579815263613852 6.829943277101602" Properties=species:S:1:pos:R:3 unique_starting_index=84 config_type=initial n_minim_iter=13 stress="-0.0016261512284022138 0.0022936993776239483 -0.002956106275851062 0.0022936993776239483 0.006213901636273386 0.0022986471204415465 -0.002956106275851062 0.0022986471204415465 0.0006472271584170542" pbc="T T T"
Si       3.48941028       2.31996705       1.10790720
Si       2.02929905       5.32635964       6.45202472
Si       3.35967673       0.31181045      -0.16756109
Si       2.15903260       7.33451624       7.72749301
Si       0.15973771       8.10581366       6.81811668
Si       5.35897161      -0.45948698       0.74181523
Si       5.51042799       3.34422955       4.98515263
Si       0.00828134       4.30209714       2.57477928
8
Lattice="5.36866547147394 -1.3587119007050947 -0.16012562662939533 -0.2696452911468041 5.61484751907595 0.9072417421034618 0.4495164393827204 3.329572930912117 6.827787278343991" Properties=species:S:1:pos:R:3 unique_starting_index=84 config_type=initial n_minim_iter=14 stress="-0.001134554092548374 -0.0013085393179081547 0.00249931494072474 -0.0013085393179081547 -0.0008356461125888125 0.002340678307359077 0.00249931494072474 0.002340678307359077 -0.0012824472982517895" pbc="T T T"
Si       3.49112604       2.29735169       1.12650976
Si       2.05741058       5.28835686       6.44839363
Si       3.35878470       0.30254593      -0.15261569
Si       2.18975192       7.28316261       7.72751909
Si       0.16727247       8.05891583       6.80893964
Si       5.38126415      -0.47320728       0.76596375
Si       5.53828175       3.30348717       5.00907499
Si       0.01025487       4.28222138       2.56582840
8
Lattice="5.385947813023513 -1.3716505431048152 -0.16486641054993803 -0.28825616850278674 5.608685764516929 0.8768991564389047 0.4269550206362047 3.292448692205963 6.8179300565557215" Properties=species:S:1:pos:R:3 unique_starting_index=84 config_type=initial n_minim_iter=15 stress="0.0023327130516273636 -0.0013403263361208798 0.00040499058349834435 -0.0013403263361208798 -0.006461331812439738 -0.0009726519160254871 0.00040499058349834435 -0.0009726519160254871 0.0005775903840073591" pbc="T T T"
Si       3.47824649       2.27179486       1.11447269
Si       2.04640018       5.25768906       6.41549012
Si       3.35082499       0.29519612      -0.16248606
Si       2.17382168       7.23428779       7.69244886
Si       0.11974047       8.02610490       6.79755935
Si       5.40490619      -0.49662098       0.73240345
Si       5.52816604       3.24250060       4.99062066
Si      -0.00351937       4.28698331       2.53934214
8
Lattice="5.368941464024324 -1.3725536584666866 -0.162851197358722 -0.283859480656656 5.625288434999268 0.8769938032200906 0.43058289985430537 3.301913787236551 6.819059994254429" Properties=species:S:1:pos:R:3 unique_starting_index=84 config_type=initial n_minim_iter=16 stress="0.00035590109427050123 -0.00038304820083720086 0.0006727980858410151 -0.00038304820083720086 -0.002464711369941971 -0.00012163604245762701 0.0006727980858410151 -0.00012163604245762701 -0.0005750016083149919" pbc="T T T"
Si       3.46400727       2.27702760       1.12647323
Si       2.05165761       5.27762097       6.40672938
Si       3.33920579       0.30234775      -0.16492405
Si       2.17645910       7.25230081       7.69812665
Si       0.12245939       8.04572736       6.80784122
Si       5.39320549      -0.49107880       0.72536138
Si       5.51523142       3.24947751       4.99881996
Si       0.00043346       4.30517105       2.53438264
8
Lattice="5.360672818713918 -1.3750493292425823 -0.16836651441341668 -0.2846058363642758 5.633688842699179 0.8774897573072066 0.42384023755335437 3.305495171299706 6.8301147023819695" Properties=species:S:1:pos:R:3 unique_starting_index=84 config_type=initial n_minim_iter=17 stress="8.20121065771795e-06 0.0004971608525579226 -0.00037014774796046546 0.0004971608525579226 0.0013605020437013422 0.00029626069251934955 -0.00037014774796046546 0.00029626069251934955 0.0014351452015971232" pbc="T T T"
Si       3.45196866       2.27853838       1.13244595
Si       2.04793856       5.28559630       6.40679200
Si       3.33330510       0.30638188      -0.17465050
Si       2.16660212       7.25775281       7.71388845
Si       0.11144710       8.04826407       6.82419036
Si       5.38846012      -0.48412938       0.71504758
Si       5.50192936       3.24629485       5.00852735
Si      -0.00202214       4.31783984       2.53071059
8
Lattice="5.356352783550503 -1.38262879075127 -0.16463970339314893 -0.29000301978411286 5.645482911285589 0.86044998675436 0.41953915256550306 3.296476480596035 6.799310093789735" Properties=species:S:1:pos:R:3 unique_starting_index=84 config_type=initial n_minim_iter=18 stress="-0.0011600590518807885 0.0004351479981785587 -0.000461979259258117 0.0004351479981785587 0.004434651804711826 0.00036079879062268257 -0.000461979259258117 0.00036079879062268257 -0.002357415121887678" pbc="T T T"
Si       3.43763380       2.27165955       1.13665151
Si       2.04825512       5.28767105       6.35846887
Si       3.32728555       0.30519282      -0.17709257
Si       2.15860337       7.25413778       7.67221294
Si       0.09924270       8.03687560       6.79209256
Si       5.38664622      -0.47754500       0.70302782
Si       5.49059071       3.22448268       4.98306164
Si      -0.00470180       4.33484792       2.51205874
8
Lattice="5.364005945118471 -1.3792074598199633 -0.1509119913754958 -0.2946425594805914 5.612608495906539 0.8391876633299197 0.42778537061628125 3.2539678773572387 6.812165845454726" Properties=species:S:1:pos:R:3 unique_starting_index=84 config_type=initial n_minim_iter=19 stress="-0.0007205524434787183 0.00036893867519343623 0.0003593897379270499 0.00036893867519343623 0.00022423524059299996 0.0005565216342046539 0.0003593897379270499 0.0005565216342046539 0.0019851068500525513" pbc="T T T"
Si       3.43272434       2.24899195       1.14992202
Si       2.06442442       5.23837696       6.35051950
Si       3.33243850       0.29982350      -0.18143685
Si       2.16471025       7.18754542       7.68187837
Si       0.09854777       7.93643488       6.78848794
Si       5.39860099      -0.44906597       0.71195358
Si       5.50099830       3.15683529       4.99930054
Si      -0.00384954       4.33053362       2.50114098
8
Lattice="5.372159205811595 -1.3828256344201117 -0.15168223389810775 -0.29886041470597224 5.615571342585507 0.8287414748291619 0.4218290867506493 3.2464553067400606 6.788275846403334" Properties=species:S:1:pos:R:3 unique_starting_index=84 config_type=initial n_minim_iter=20 stress="0.00027347144394100913 -0.00014410871105186588 -0.00024459550035853516 -0.00014410871105186588 -0.0005132122372614419 0.0003393658128564904 -0.00024459550035853516 0.0003393658128564904 0.00042172748562131285" pbc="T T T"
Si       3.43691731       2.24898093       1.13716555
Si       2.05821057       5.23022008       6.32816953
Si       3.33520069       0.29458938      -0.18232937
Si       2.15992718       7.18461164       7.64766446
Si       0.09083812       7.93294483       6.75433882
Si       5.40428976      -0.45374382       0.71099627
Si       5.50372352       3.14410182       4.97419279
Si      -0.00859565       4.33509919       2.49114229
8
Lattice="5.3755836339887315 -1.39109238591088 -0.12545728002927145 -0.30649624999053493 5.619732482591631 0.7779108303578927 0.43261766268629454 3.2005743646621956 6.726015976546241" Properties=species:S:1:pos:R:3 unique_starting_index=84 config_type=initial n_minim_iter=21 stress="0.0016255975045850867 -0.001455424081873292 -0.00047359771640601635 -0.001455424081873292 -0.0027769393033413013 -0.00048385875044280066 -0.00047359771640601635 -0.00048385875044280066 -0.0022219341772942657" pbc="T T T"
Si       3.43822493       2.23968727       1.13564093
Si       2.06348012       5.18952719       6.24282860
Si       3.33155856       0.28411569      -0.17258462
Si       2.17014649       7.14509877       7.55105414
Si       0.09586488       7.89003992       6.65234802
Si       5.40584017      -0.46082546       0.72612150
Si       5.51538895       3.07295501       4.92219545
Si      -0.01368390       4.35625945       2.45627407
