16
Lattice="13.767692535545352 4.707332447513342 5.968810937150383 5.277787473996425 12.017387889969527 2.186607802190236 5.265158260233074 4.687553386693269 5.660565412743945" Properties=species:S:1:pos:R:3 unique_starting_index=30 config_type=initial n_minim_iter=1 energy=-2731.8931773175373 free_energy=-2731.8931773175373 pbc="T T T"
Si      13.66012139      14.03820961       9.15699845
Si      10.65051688       7.37406412       4.65898570
Si       8.10177828       8.23787537       4.84687580
Si      16.20885999      13.17439835       8.96910836
Si      14.51771673      12.43086840       9.13824738
Si       9.79292154       8.98140533       4.67773677
Si      11.62541090       8.88130647       4.98231725
Si      12.68522737      12.53096725       8.83366690
Si       6.65402667       9.16778925       4.13383849
Si      17.65661160      12.24448447       9.68214566
Si      19.34170453      12.75917637       9.09230848
Si       4.96893374       8.65309736       4.72367567
Si       6.40895059       7.49373474       4.67143381
Si      17.90168768      13.91853898       9.14455035
Si      16.38935309      14.79669175       9.71454068
Si       7.92128518       6.61558197       4.10144347
16
Lattice="13.76721881752048 4.707432703867548 5.9690665342411195 5.27757668782771 12.017665022028513 2.1867520542814933 5.264991028751127 4.68767545956126 5.660758137016464" Properties=species:S:1:pos:R:3 unique_starting_index=30 config_type=initial n_minim_iter=2 stress="-0.0010500816415562938 -9.159899509087538e-05 7.908008984396394e-05 -9.159899509087538e-05 -0.00015287606982961781 1.7422667218372478e-05 7.908008984396394e-05 1.7422667218372478e-05 -0.00013950207906605493" pbc="T T T"
Si      13.65964739      14.03853985       9.15736422
Si      10.65013915       7.37423334       4.65921251
Si       8.10147554       8.23808156       4.84704713
Si      16.20831100      13.17469163       8.96952960
Si      14.51722044      12.43116807       9.13862875
Si       9.79256610       8.98160511       4.67794798
Si      11.62499817       8.88150624       4.98255180
Si      12.68478836      12.53126694       8.83402492
Si       6.65377265       9.16797874       4.13400500
Si      17.65601389      12.24479445       9.68257173
Si      19.34102689      12.75948162       9.09271776
Si       4.96875965       8.65329157       4.72385897
Si       6.40871617       7.49387672       4.67160573
Si      17.90107037      13.91889647       9.14497100
Si      16.38878260      14.79700011       9.71495112
Si       7.92100393       6.61577308       4.10162560
16
Lattice="13.76733928916549 4.707877450798366 5.9697115363065185 5.277635565286043 12.018617159218067 2.18710359056902 5.265073763410114 4.688103917645143 5.661296635167494" Properties=species:S:1:pos:R:3 unique_starting_index=30 config_type=initial n_minim_iter=3 stress="-7.401287246278532e-05 -6.088371328264468e-05 0.0001277864790346256 -6.088371328264468e-05 0.0006830723520760167 7.302275138639383e-05 0.0001277864790346256 7.302275138639383e-05 0.0005974455956770866" pbc="T T T"
Si      13.65981665      14.03972234       9.15832468
Si      10.65023197       7.37487618       4.65978708
Si       8.10151542       8.23881169       4.84748409
Si      16.20853320      13.17578683       8.97062768
Si      14.51740235      12.43225678       9.13963274
Si       9.79264627       8.98234174       4.67847902
Si      11.62510783       8.88225867       4.98313715
Si      12.68494079      12.53233986       8.83497461
Si       6.65381315       9.16866210       4.13442993
Si      17.65623546      12.24593643       9.68368183
Si      19.34121261      12.76063494       9.09375508
Si       4.96883601       8.65396359       4.72435668
Si       6.40876085       7.49440152       4.67205725
Si      17.90128777      13.92019700       9.14605451
Si      16.38896938      14.79815232       9.71601964
Si       7.92107924       6.61644620       4.10209212
16
Lattice="13.767531129692241 4.7080644554562 5.969788521631477 5.277802608860045 12.018766619947467 2.187174755805829 5.26515979547168 4.688211953698058 5.661402086812099" Properties=species:S:1:pos:R:3 unique_starting_index=30 config_type=initial n_minim_iter=4 stress="-4.355170593200916e-05 0.00014250240874911873 -8.273465003358875e-05 0.00014250240874911873 8.9637084773804e-05 -0.00020363824215199804 -8.273465003358875e-05 -0.00020363824215199804 -0.00015961769453708057" pbc="T T T"
Si      13.66008869      14.03996276       9.15846323
Si      10.65040484       7.37508026       4.65990213
Si       8.10160305       8.23900926       4.84743382
Si      16.20889048      13.17603377       8.97093155
Si      14.51768718      12.43255728       9.13984113
Si       9.79280635       8.98248575       4.67852423
Si      11.62531178       8.88244800       4.98320199
Si      12.68518175      12.53259503       8.83516338
Si       6.65391762       9.16870874       4.13443942
Si      17.65657591      12.24633429       9.68392594
Si      19.34153476      12.76101803       9.09392527
Si       4.96895877       8.65402500       4.72444009
Si       6.40883619       7.49441084       4.67206891
Si      17.90165735      13.92063219       9.14629646
Si      16.38927612      14.79831174       9.71619867
Si       7.92121741       6.61673129       4.10216669
16
Lattice="13.767659288103617 4.707883842921446 5.970455598394473 5.2775791613952165 12.018514613135233 2.187882966051963 5.265185656788308 4.688243498116617 5.6619213919774465" Properties=species:S:1:pos:R:3 unique_starting_index=30 config_type=initial n_minim_iter=5 stress="6.483682669491494e-05 -0.0001893420529865244 4.0213099544381895e-05 -0.0001893420529865244 -0.00015306874128171078 4.6878518612760965e-05 4.0213099544381895e-05 4.6878518612760965e-05 -4.026503246895713e-05" pbc="T T T"
Si      13.66001544      14.03973462       9.15965255
Si      10.65040866       7.37490734       4.66060741
Si       8.10152236       8.23887609       4.84807223
Si      16.20890174      13.17576587       8.97218773
Si      14.51769067      12.43239186       9.14101518
Si       9.79273343       8.98225009       4.67924478
Si      11.62527865       8.88220318       4.98397717
Si      12.68514545      12.53243877       8.83628279
Si       6.65380461       9.16852494       4.13508153
Si      17.65661950      12.24611702       9.68517842
Si      19.34155338      12.76071683       9.09516783
Si       4.96887073       8.65392512       4.72509212
Si       6.40875371       7.49428863       4.67263346
Si      17.90167039      13.92035332       9.14762650
Si      16.38922091      14.79798967       9.71751265
Si       7.92120320       6.61665228       4.10274730
16
Lattice="13.767673753447093 4.708585058679207 5.971023657985807 5.277862199174762 12.019028875268976 2.188457229566341 5.26528836809133 4.688701818267732 5.66242519820802" Properties=species:S:1:pos:R:3 unique_starting_index=30 config_type=initial n_minim_iter=6 stress="-4.258263947892248e-05 0.00030605959343649256 -5.998961927127477e-05 0.00030605959343649256 -0.00019367663519869846 0.0002839492699497478 -5.998961927127477e-05 0.0002839492699497478 0.00010681270106123396" pbc="T T T"
Si      13.66030038      14.04073237       9.16069264
Si      10.65052394       7.37558338       4.66121344
Si       8.10163612       8.23945400       4.84862641
Si      16.20918820      13.17686175       8.97327968
Si      14.51795415      12.43346777       9.14207524
Si       9.79287017       8.98284799       4.67983085
Si      11.62540824       8.88290579       4.98462324
Si      12.68541608      12.53340997       8.83728285
Si       6.65401609       9.16906122       4.13560835
Si      17.65680823      12.24725453       9.68629774
Si      19.34173952      12.76191562       9.09622429
Si       4.96908480       8.65440013       4.72568180
Si       6.40886306       7.49480274       4.67309328
Si      17.90196126      13.92151301       9.14881280
Si      16.38949709      14.79907382       9.71866496
Si       7.92132724       6.61724193       4.10324113
16
Lattice="13.767507481713494 4.70870246110667 5.971995693774097 5.277499033034022 12.020231383319139 2.188791992938697 5.265245755638476 4.689064497809792 5.663104827255313" Properties=species:S:1:pos:R:3 unique_starting_index=30 config_type=initial n_minim_iter=7 stress="9.301191591548733e-07 1.9654927386531902e-05 7.470491564768159e-05 1.9654927386531902e-05 -0.00010243491036263425 -7.85430131223885e-05 7.470491564768159e-05 -7.85430131223885e-05 7.405705747025686e-05" pbc="T T T"
Si      13.65995697      14.04180307       9.16184440
Si      10.65029530       7.37619528       4.66204811
Si       8.10130102       8.24006429       4.84920541
Si      16.20895125      13.17793406       8.97468710
Si      14.51772922      12.43457114       9.14345845
Si       9.79252305       8.98342721       4.68043407
Si      11.62507865       8.88353283       4.98540866
Si      12.68517362      12.53446552       8.83848385
Si       6.65378540       9.16987363       4.13600607
Si      17.65646687      12.24812471       9.68788644
Si      19.34135285      12.76286941       9.09765634
Si       4.96889942       8.65512894       4.72623618
Si       6.40857975       7.49544369       4.67346274
Si      17.90167252      13.92255465       9.15042977
Si      16.38909494      14.80009352       9.72006314
Si       7.92115734       6.61790482       4.10382937
16
Lattice="13.76735898613534 4.708843997521511 5.971918921359875 5.277365525095421 12.020629180090486 2.1889117543691583 5.265133916130839 4.689265454727276 5.6631116682233005" Properties=species:S:1:pos:R:3 unique_starting_index=30 config_type=initial n_minim_iter=8 stress="-1.8822369296311993e-05 -5.696416570093264e-05 -0.0001420512400247913 -5.696416570093264e-05 5.555279089603541e-05 5.303683238880416e-05 -0.0001420512400247913 5.303683238880416e-05 -5.815276145889676e-05" pbc="T T T"
Si      13.65972315      14.04228887       9.16188866
Si      10.65013527       7.37644977       4.66205369
Si       8.10113176       8.24033640       4.84922155
Si      16.20872667      13.17840224       8.97472079
Si      14.51749623      12.43501995       9.14348932
Si       9.79236220       8.98371869       4.68045302
Si      11.62490587       8.88380861       4.98541399
Si      12.68495255      12.53493002       8.83852835
Si       6.65363891       9.17018161       4.13604265
Si      17.65621951      12.24855702       9.68789969
Si      19.34109826      12.76329464       9.09764393
Si       4.96876017       8.65544399       4.72629842
Si       6.40844097       7.49572466       4.67346032
Si      17.90141745      13.92301397       9.15048202
Si      16.38881753      14.80059399       9.72010969
Si       7.92104090       6.61814464       4.10383266
16
Lattice="13.767600321169631 4.709183777943251 5.972602817113407 5.2775485893805145 12.021144047995014 2.189231478477161 5.265386163034331 4.689523975248025 5.663454256192669" Properties=species:S:1:pos:R:3 unique_starting_index=30 config_type=initial n_minim_iter=9 stress="1.9016266526863563e-05 2.2673193022041948e-05 9.559309399057058e-05 2.2673193022041948e-05 5.262420046787495e-05 5.286726441180056e-05 9.559309399057058e-05 5.286726441180056e-05 -0.00012612016999815996" pbc="T T T"
Si      13.66023276      14.04294893       9.16266097
Si      10.65030232       7.37690287       4.66262758
Si       8.10132525       8.24071143       4.84964732
Si      16.20920983      13.17914037       8.97564123
Si      14.51793782      12.43567405       9.14430906
Si       9.79259725       8.98417775       4.68097950
Si      11.62512888       8.88424525       4.98602331
Si      12.68540620      12.53560655       8.83926524
Si       6.65383440       9.17057010       4.13638437
Si      17.65670067      12.24928170       9.68890418
Si      19.34153347      12.76402103       9.09866119
Si       4.96900161       8.65583077       4.72662736
Si       6.40866169       7.49612454       4.67377123
Si      17.90187339      13.92372726       9.15151733
Si      16.38928137      14.80133523       9.72105058
Si       7.92125370       6.61851657       4.10423797
16
Lattice="13.767517827639876 4.7092105635958825 5.97290200338021 5.277528719543939 12.02129452116797 2.189249228718787 5.265374395935621 4.689543082148679 5.663698332341188" Properties=species:S:1:pos:R:3 unique_starting_index=30 config_type=initial n_minim_iter=10 stress="-1.9124224658332595e-05 -1.326927110897537e-05 -9.018524973566823e-05 -1.326927110897537e-05 -0.00011259742147811271 -3.8202431859445046e-05 -9.018524973566823e-05 -3.8202431859445046e-05 0.0001495703807624958" pbc="T T T"
Si      13.66023346      14.04302348       9.16301052
Si      10.65018748       7.37702469       4.66283904
Si       8.10125920       8.24076862       4.84980501
Si      16.20916174      13.17927955       8.97604456
Si      14.51790125      12.43578219       9.14468603
Si       9.79251969       8.98426598       4.68116353
Si      11.62503488       8.88429859       4.98624578
Si      12.68538606      12.53574958       8.83960378
Si       6.65379196       9.17062622       4.13648071
Si      17.65662899      12.24942195       9.68936885
Si      19.34145175      12.76414331       9.09905148
Si       4.96896919       8.65590485       4.72679808
Si       6.40862472       7.49621566       4.67390577
Si      17.90179622      13.92383251       9.15194380
Si      16.38919769      14.80145590       9.72146707
Si       7.92122325       6.61859227       4.10438249
16
Lattice="13.767787012406336 4.7097853911432725 5.973829263739439 5.277729536015349 12.022431005074441 2.189624779787891 5.265709530113903 4.690029130273224 5.664110246661312" Properties=species:S:1:pos:R:3 unique_starting_index=30 config_type=initial n_minim_iter=11 stress="-1.6397367576208303e-07 1.1215600324738874e-05 -4.7608760980570705e-06 1.1215600324738874e-05 8.677619374925819e-06 2.1852794018950725e-05 -4.7608760980570705e-06 2.1852794018950725e-05 -1.0451843128154516e-06" pbc="T T T"
Si      13.66091914      14.04431905       9.16399563
Si      10.65030694       7.37792648       4.66356866
Si       8.10152416       8.24158287       4.85028328
Si      16.20970192      13.18066265       8.97728101
Si      14.51853342      12.43708129       9.14572260
Si       9.79269265       8.98516424       4.68184169
Si      11.62522330       8.88514832       4.98709321
Si      12.68600278      12.53709721       8.84047108
Si       6.65406827       9.17144679       4.13687201
Si      17.65715781      12.25079874       9.69069228
Si      19.34199714      12.76550474       9.10036015
Si       4.96922894       8.65674078       4.72720414
Si       6.40887828       7.49700423       4.67428753
Si      17.90234779      13.92524129       9.15327676
Si      16.38974750      14.80295170       9.72269423
Si       7.92147858       6.61929383       4.10487006
16
Lattice="13.767973876566154 4.7099721752272385 5.974511777269985 5.277789138612369 12.023128415182931 2.1897286101932543 5.265946439519349 4.690225258680878 5.664367903466158" Properties=species:S:1:pos:R:3 unique_starting_index=30 config_type=initial n_minim_iter=12 stress="-9.583568567261228e-07 -3.1897421880603895e-06 -1.9779910623574882e-05 -3.1897421880603895e-06 3.028789463138027e-05 4.529246073958191e-06 -1.9779910623574882e-05 4.529246073958191e-06 5.95590855307795e-06" pbc="T T T"
Si      13.66133539      14.04494185       9.16455364
Si      10.65037407       7.37838400       4.66405465
Si       8.10161755       8.24199404       4.85053069
Si      16.21009190      13.18133181       8.97807760
Si      14.51891731      12.43769382       9.14633101
Si       9.79279215       8.98563202       4.68227728
Si      11.62523505       8.88557815       4.98767819
Si      12.68647440      12.53774770       8.84093011
Si       6.65425774       9.17188019       4.13706524
Si      17.65745172      12.25144566       9.69154305
Si      19.34233102      12.76613807       9.10124835
Si       4.96937843       8.65718778       4.72735994
Si       6.40901763       7.49742417       4.67449818
Si      17.90269182      13.92590168       9.15411011
Si      16.39006839      14.80366305       9.72346749
Si       7.92164107       6.61966280       4.10514080
16
Lattice="13.76841340656272 4.710078094010272 5.975602803418607 5.277982178959047 12.023616956638449 2.1898996345606965 5.2664056182218895 4.690310260888518 5.6647473014739145" Properties=species:S:1:pos:R:3 unique_starting_index=30 config_type=initial n_minim_iter=13 stress="1.3013213790947416e-05 -3.990333957868226e-06 -1.7725558466070112e-06 -3.990333957868226e-06 4.822028849765572e-06 7.66737376919981e-06 -1.7725558466070112e-06 7.66737376919981e-06 2.2360513621292994e-05" pbc="T T T"
Si      13.66218892      14.04531135       9.16539838
Si      10.65061228       7.37869396       4.66485136
Si       8.10187962       8.24224946       4.85098326
Si      16.21092159      13.18175585       8.97926648
Si      14.51977357      12.43808085       9.14727174
Si       9.79302764       8.98592447       4.68297800
Si      11.62551382       8.88590759       4.98863509
Si      12.68728738      12.53809772       8.84161465
Si       6.65462261       9.17212507       4.13741922
Si      17.65817859      12.25188025       9.69283052
Si      19.34314857      12.76653181       9.10268837
Si       4.96965264       8.65747350       4.72756137
Si       6.40932794       7.49771994       4.67482181
Si      17.90347326      13.92628537       9.15542792
Si      16.39080701      14.80405255       9.72468184
Si       7.92199419       6.61995277       4.10556790
16
Lattice="13.768777634695752 4.710195342505112 5.97652208965939 5.278217140242632 12.024100852703544 2.1898709393024696 5.2668749561811055 4.690351345828342 5.664917503891841" Properties=species:S:1:pos:R:3 unique_starting_index=30 config_type=initial n_minim_iter=14 stress="6.727209367468225e-06 3.655728213507429e-06 -1.851668855452493e-05 3.655728213507429e-06 4.798071283228674e-06 6.258972377703802e-08 -1.851668855452493e-05 6.258972377703802e-08 2.111684042177792e-05" pbc="T T T"
Si      13.66308328      14.04563385       9.16583546
Si      10.65078645       7.37901369       4.66547507
Si       8.10212808       8.24247955       4.85123493
Si      16.21174165      13.18216799       8.98007560
Si      14.52061240      12.43845964       9.14784489
Si       9.79325733       8.98618790       4.68346565
Si      11.62568635       8.88627101       4.98932780
Si      12.68818338      12.53837653       8.84198273
Si       6.65492568       9.17240280       4.13761019
Si      17.65894405      12.25224474       9.69370034
Si      19.34391990      12.76687542       9.10367296
Si       4.96994983       8.65777212       4.72763758
Si       6.40958744       7.49796336       4.67494268
Si      17.90428229      13.92668418       9.15636785
Si      16.39153827      14.80437250       9.72553096
Si       7.92233146       6.62027504       4.10577957
16
Lattice="13.76951877758362 4.710301202559152 5.978098148134586 5.278595866178919 12.024797569826557 2.1898937439073736 5.267727450128351 4.690381449410453 5.665158968940573" Properties=species:S:1:pos:R:3 unique_starting_index=30 config_type=initial n_minim_iter=15 stress="1.955452536965655e-05 -5.722980345543552e-06 -5.951718981355738e-06 -5.722980345543552e-06 -1.772370470958298e-05 -4.288511488221974e-06 -5.951718981355738e-06 -4.288511488221974e-06 3.109608637489215e-06" pbc="T T T"
Si      13.66456837      14.04602530       9.16662131
Si      10.65127372       7.37945493       4.66652955
Si       8.10254804       8.24282777       4.85176059
Si      16.21329405      13.18265245       8.98139027
Si      14.52215911      12.43888037       9.14876115
Si       9.79368299       8.98659985       4.68438971
Si      11.62610524       8.88669177       4.99043299
Si      12.68973686      12.53878845       8.84271788
Si       6.65551928       9.17276883       4.13790593
Si      17.66032281      12.25271140       9.69524493
Si      19.34540974      12.76732450       9.10536919
Si       4.97043236       8.65815572       4.72778167
Si       6.41004242       7.49827622       4.67516939
Si      17.90579967      13.92720401       9.15798147
Si      16.39290850      14.80478136       9.72699553
Si       7.92293360       6.62069886       4.10615533
16
Lattice="13.77001075885127 4.710519960364211 5.979216351083961 5.278890901159191 12.025485504477189 2.1899557752347203 5.268320713278361 4.690512311329426 5.665353577863235" Properties=species:S:1:pos:R:3 unique_starting_index=30 config_type=initial n_minim_iter=16 stress="7.788629279249464e-06 -1.3060118451175423e-06 -2.4662026575899954e-05 -1.3060118451175423e-06 2.1035765868886923e-05 -3.066325352816153e-05 -2.4662026575899954e-05 -3.066325352816153e-05 -1.3167018297648676e-06" pbc="T T T"
Si      13.66561718      14.04659131       9.16726751
Si      10.65160519       7.37992646       4.66725819
Si       8.10284720       8.24325852       4.85220891
Si      16.21437517      13.18325925       8.98231679
Si      14.52326927      12.43945534       9.14948942
Si       9.79395310       8.98706244       4.68503628
Si      11.62637227       8.88717586       4.99124736
Si      12.69085010      12.53934192       8.84327834
Si       6.65589155       9.17319479       4.13814956
Si      17.66133082      12.25332299       9.69637614
Si      19.34638069      12.76798677       9.10665428
Si       4.97084169       8.65853100       4.72787142
Si       6.41034363       7.49864645       4.67539359
Si      17.90687874      13.92787133       9.15913212
Si      16.39388846      14.80540925       9.72807682
Si       7.92333392       6.62110853       4.10644888
16
Lattice="13.771451187853286 4.7111699885602185 5.982233527318221 5.27967665266262 12.026617949640093 2.190937967383793 5.269797488035144 4.690950303632721 5.66624429057736" Properties=species:S:1:pos:R:3 unique_starting_index=30 config_type=initial n_minim_iter=17 stress="2.1661463669414324e-05 -5.808749588858811e-07 -6.042573425602022e-06 -5.808749588858811e-07 1.3187014994599533e-05 -2.1857913182153407e-05 -6.042573425602022e-06 -2.1857913182153407e-05 -1.545801475923905e-05" pbc="T T T"
Si      13.66828877      14.04781496       9.16997798
Si      10.65263656       7.38092328       4.66943781
Si       8.10370034       8.24411520       4.85389551
Si      16.21722499      13.18462304       8.98552028
Si      14.52599213      12.44080926       9.15237579
Si       9.79493320       8.98792898       4.68704000
Si      11.62729707       8.88815572       4.99381768
Si      12.69362825      12.54058252       8.84559810
Si       6.65692455       9.17401188       4.13941234
Si      17.66400078      12.25472637       9.70000345
Si      19.34915001      12.76948881       9.11065192
Si       4.97177531       8.65924943       4.72876386
Si       6.41136015       7.49938714       4.67658762
Si      17.90956518      13.92935111       9.16282817
Si      16.39654708      14.80679074       9.73167195
Si       7.92437825       6.62194750       4.10774383
16
Lattice="13.773373448224227 4.7122949109119645 5.986774587139796 5.280755613167844 12.027945570360188 2.1930303570299623 5.271754914067671 4.691750249933398 5.667984042760749" Properties=species:S:1:pos:R:3 unique_starting_index=30 config_type=initial n_minim_iter=18 stress="2.343407859131464e-05 1.6636279203780436e-06 -1.4797463698687348e-05 1.6636279203780436e-06 1.179884239521942e-06 -1.2810127305615914e-06 -1.4797463698687348e-05 -1.2810127305615914e-06 -6.170991048014931e-06" pbc="T T T"
Si      13.67181123      14.04985334       9.17476942
Si      10.65407275       7.38213739       4.67301956
Si       8.10503639       8.24523410       4.85676120
Si      16.22084758      13.18675663       8.99102778
Si      14.52961045      12.44284132       9.15733111
Si       9.79627353       8.98914941       4.69045787
Si      11.62844482       8.88943395       4.99787579
Si      12.69743915      12.54255678       8.84991320
Si       6.65830839       9.17506767       4.14187805
Si      17.66757559      12.25692306       9.70591093
Si      19.35298079      12.77179093       9.11719251
Si       4.97290319       8.66019980       4.73059648
Si       6.41262328       7.50053570       4.67884087
Si      17.91326070      13.93145504       9.16894811
Si      16.40014378      14.80884447       9.73760872
Si       7.92574019       6.62314626       4.11018027
16
Lattice="13.777193766777335 4.714461356580822 5.995674367206619 5.282888783183361 12.030507309954432 2.197089856874785 5.275604451370089 4.693282672817959 5.671407644046152" Properties=species:S:1:pos:R:3 unique_starting_index=30 config_type=initial n_minim_iter=19 stress="5.180643548678373e-05 1.5547605228584892e-05 -1.3763151692094243e-05 1.5547605228584892e-05 1.82605180024113e-05 -1.3834726158987125e-05 -1.3763151692094243e-05 -1.3834726158987125e-05 -1.9658674612534777e-05" pbc="T T T"
Si      13.67880700      14.05386597       9.18414371
Si      10.65688000       7.38438537       4.68002816
Si       8.10752040       8.24729176       4.86228503
Si      16.22816660      13.19095958       9.00188683
Si      14.53694824      12.44676191       9.16704048
Si       9.79873876       8.99148943       4.69713139
Si      11.63079766       8.89180074       5.00570380
Si      12.70488935      12.54645060       8.85846807
Si       6.66112744       9.17711704       4.14682087
Si      17.67455956      12.26113430       9.71735100
Si      19.36036791      12.77616415       9.12996069
Si       4.97531909       8.66208718       4.73421118
Si       6.41527337       7.50273640       4.68329708
Si      17.92041363      13.93551494       9.18087479
Si      16.40726890      14.81279277       9.74909393
Si       7.92841810       6.62545857       4.11507794
16
Lattice="13.781553652437298 4.716738186332986 6.006735584983963 5.285179234627996 12.032885618350374 2.2024223966567362 5.280114646593328 4.694942102749808 5.67581966623847" Properties=species:S:1:pos:R:3 unique_starting_index=30 config_type=initial n_minim_iter=20 stress="9.148559562776293e-05 4.159468075419259e-05 -2.092217136782054e-05 4.159468075419259e-05 1.7640494970169554e-05 -6.802712736410198e-06 -2.092217136782054e-05 -6.802712736410198e-06 -6.943497235857445e-06" pbc="T T T"
Si      13.68699687      14.05781028       9.19614823
Si      10.65985066       7.38675563       4.68882942
Si       8.11026687       8.24926550       4.86940602
Si      16.23658066      13.19530041       9.01557163
Si      14.54528453      12.45087258       9.17927709
Si       9.80156301       8.99369333       4.70570055
Si      11.63343978       8.89389339       5.01559301
Si      12.71340776      12.55067251       8.86938463
Si       6.66433394       9.17933225       4.15319751
Si      17.68251360      12.26523365       9.73178014
Si      19.36883670      12.78054388       9.14626624
Si       4.97801083       8.66402203       4.73871141
Si       6.41811952       7.50469848       4.68907546
Si      17.92872801      13.93986743       9.19590218
Si      16.41515296      14.81674232       9.76348947
Si       7.93169457       6.62782359       4.12148817
16
Lattice="13.788750830621336 4.719085304303296 6.025824348246762 5.28799987992794 12.035770857606067 2.211723325368964 5.2875990450284185 4.697057650646341 5.683182645698879" Properties=species:S:1:pos:R:3 unique_starting_index=30 config_type=initial n_minim_iter=21 stress="0.00020540135101161536 2.4370334505431535e-05 -1.963312226094093e-05 2.4370334505431535e-05 5.809861128136134e-05 -2.723084972127343e-06 -1.963312226094093e-05 -2.723084972127343e-06 -1.3076509781838379e-05" pbc="T T T"
Si      13.70035279      14.06297082       9.21681575
Si      10.66399697       7.38894299       4.70391457
Si       8.11424084       8.25156575       4.88172819
Si      16.25010891      13.20034806       9.03900213
Si      14.55855227      12.45603369       9.20015076
Si       9.80579748       8.99588012       4.72057956
Si      11.63725684       8.89618482       5.03264765
Si      12.72709291      12.55572899       8.88808267
Si       6.66927421       9.18180647       4.16387004
Si      17.69507555      12.27010734       9.75686027
Si      19.38231429      12.78579059       9.17405692
Si       4.98203547       8.66612322       4.74667340
Si       6.42235634       7.50703660       4.69887215
Si      17.94199342      13.94487721       9.22185817
Si      16.42712727      14.82141223       9.78795723
Si       7.93722248       6.63050158       4.13277308
