16
Lattice="13.611783283103557 4.4295508046059595 5.816896431270711 5.147987957551297 12.150138208949782 1.6166360801870863 5.112192791090319 4.484648080832288 5.674538095592336" Properties=species:S:1:pos:R:3 unique_starting_index=30 config_type=initial n_minim_iter=1 energy=-2731.7111114716627 free_energy=-2731.7111114716627 pbc="T T T"
Si      13.36695008      13.74435682       8.78728799
Si      10.50501395       7.31998027       4.32078262
Si       7.97396263       8.20978843       4.51928911
Si      15.89800140      12.85454867       8.58878150
Si      14.20470962      12.12962725       8.82275519
Si       9.66725441       8.93470985       4.28531542
Si      11.50449311       8.82778351       4.55454377
Si      12.36747092      12.23655358       8.55352683
Si       6.52529206       9.12359821       3.79373978
Si      17.34667197      11.94073888       9.31433083
Si      19.02321758      12.40280684       8.67057960
Si       4.84874645       8.66153026       4.43749100
Si       6.26891785       7.47922446       4.41116998
Si      17.60304618      13.58511263       8.69690062
Si      16.12696417      14.49849169       9.28737644
Si       7.74499986       6.56584540       3.82069416
16
Lattice="13.623217644599558 4.411041040475641 5.811910382681077 5.141703259816145 12.142453495529555 1.60726560372735 5.113964621064409 4.474803313317481 5.6688033350389855" Properties=species:S:1:pos:R:3 unique_starting_index=30 config_type=initial n_minim_iter=2 stress="0.015382219071667811 0.0023072793605796484 -7.936285334416545e-05 0.0023072793605796484 0.003853393251265517 0.0023465753286723025 -7.936285334416545e-05 0.0023465753286723025 0.006843516814671369" pbc="T T T"
Si      13.36886648      13.72292697       8.77383806
Si      10.51001905       7.30537088       4.31414126
Si       7.97533175       8.19742072       4.51152295
Si      15.90355377      12.83087713       8.57645637
Si      14.20938998      12.10770209       8.81073544
Si       9.66949555       8.92059576       4.27724388
Si      11.50898980       8.81183483       4.54683745
Si      12.36989573      12.21646301       8.54114187
Si       6.52381553       9.11329782       3.78545638
Si      17.35506999      11.91500003       9.30252294
Si      19.03324609      12.37605147       8.65882295
Si       4.84563943       8.65224638       4.42915637
Si       6.26883691       7.46886535       4.40394856
Si      17.61004861      13.55943250       8.68403076
Si      16.13125458      14.47387140       9.27332048
Si       7.74763095       6.55442645       3.81465884
16
Lattice="13.617547294711118 4.405506870898366 5.809279205743493 5.136787836655122 12.138863689726044 1.604192389005304 5.111159973424614 4.471530618082919 5.666041619562884" Properties=species:S:1:pos:R:3 unique_starting_index=30 config_type=initial n_minim_iter=3 stress="-0.0009576859706083563 -0.0014460279752832937 0.0008948286615798001 -0.0014460279752832937 -0.003362665307060709 -0.00023306543311363623 0.0008948286615798001 -0.00023306543311363623 -0.0010751956384538908" pbc="T T T"
Si      13.36081722      13.71538298       8.76822073
Si      10.50467789       7.30051820       4.31129248
Si       7.97064032       8.19306142       4.50831131
Si      15.89485479      12.82283976       8.57120191
Si      14.20154457      12.10030381       8.80552199
Si       9.66395053       8.91559737       4.27399122
Si      11.50286569       8.80645450       4.54371129
Si      12.36262942      12.20944668       8.53580192
Si       6.51934941       9.10937029       3.78227823
Si      17.34614569      11.90653089       9.29723498
Si      19.02383100      12.36735270       8.65366937
Si       4.84166411       8.64854848       4.42584385
Si       6.26477329       7.46517452       4.40095373
Si      17.60072181      13.55072666       8.67855948
Si      16.12206173      14.46541118       9.26735590
Si       7.74343338       6.55049000       3.81215731
16
Lattice="13.613534125123712 4.407717986058713 5.802283038622608 5.135396369594101 12.150241879148314 1.5979064647901629 5.108602748416611 4.4738855818807375 5.66158510574986" Properties=species:S:1:pos:R:3 unique_starting_index=30 config_type=initial n_minim_iter=4 stress="0.0005638890950117654 0.002209621909233745 -0.003605771994514132 0.002209621909233745 0.003908500180210492 -0.001796896879716931 -0.003605771994514132 -0.001796896879716931 -0.0014058262502969787" pbc="T T T"
Si      13.35552602      13.72605478       8.75749630
Si      10.50200722       7.30579067       4.30427831
Si       7.96841368       8.19969711       4.50153214
Si      15.88911956      12.83214834       8.56024247
Si      14.19623458      12.10991732       8.79516180
Si       9.66129866       8.92192812       4.26661281
Si      11.49975576       8.81387992       4.53717426
Si      12.35777748      12.21796552       8.52460035
Si       6.51818151       9.11755087       3.77591169
Si      17.33935174      11.91429458       9.28586292
Si      19.01907365      12.37729435       8.64146486
Si       4.83845959       8.65455109       4.42030975
Si       6.26155612       7.47167470       4.39522511
Si      17.59597713      13.56017075       8.66654950
Si      16.11585044      14.47691235       9.25476116
Si       7.74168280       6.55493310       3.80701345
16
Lattice="13.615862152127303 4.403993077260675 5.813222718437246 5.1325623252441925 12.146347306041799 1.6048241719868062 5.11054080233689 4.4728541529135 5.667681560295931" Properties=species:S:1:pos:R:3 unique_starting_index=30 config_type=initial n_minim_iter=5 stress="-0.0007154295883863519 -0.0004729899847679826 0.002775574148093577 -0.0004729899847679826 0.0032849662018572465 0.00043738137656333794 0.002775574148093577 0.00043738137656333794 0.0033757768397470068" pbc="T T T"
Si      13.35630256      13.72131099       8.77208776
Si      10.50266272       7.30188355       4.31364069
Si       7.96867990       8.19671148       4.50969371
Si      15.89028538      12.82648306       8.57603474
Si      14.19741924      12.10563038       8.80962182
Si       9.66154604       8.91756415       4.27610663
Si      11.49988096       8.80972197       4.54852866
Si      12.35908432      12.21347256       8.53719979
Si       6.51803173       9.11473514       3.78355418
Si      17.34093355      11.90845940       9.30217427
Si      19.02074458      12.37146951       8.65854849
Si       4.83822070       8.65172503       4.42717996
Si       6.26148359       7.46992438       4.40223009
Si      17.59748169      13.55327016       8.68349836
Si      16.11644555      14.47148230       9.27080561
Si       7.74251973       6.55171223       3.81492284
16
Lattice="13.61879747589196 4.402257203443939 5.810777841513393 5.133579311851929 12.139934984895966 1.6056198074941492 5.1111260594003785 4.471206289586321 5.666423245401067" Properties=species:S:1:pos:R:3 unique_starting_index=30 config_type=initial n_minim_iter=6 stress="0.0022004689225449954 0.0015857307678400954 -0.00010426753005970106 0.0015857307678400954 -0.0025269155700032345 0.0010317233007098253 -0.00010426753005970106 0.0010317233007098253 0.0002022862337907554" pbc="T T T"
Si      13.35869438      13.71506347       8.77056151
Si      10.50480846       7.29833501       4.31225939
Si       7.96989675       8.19287027       4.50865459
Si      15.89360610      12.82052820       8.57416631
Si      14.19970154      12.10047228       8.80752583
Si       9.66380131       8.91292620       4.27529507
Si      11.50225852       8.80553224       4.54782143
Si      12.36124433      12.20786624       8.53499946
Si       6.51934927       9.11031246       3.78336708
Si      17.34415357      11.90308602       9.29945382
Si      19.02463682      12.36624520       8.65589178
Si       4.83886603       8.64715328       4.42692911
Si       6.26235095       7.46698906       4.40131234
Si      17.60115189      13.54640942       8.68150855
Si      16.11908091      14.46503945       9.26840550
Si       7.74442193       6.54835903       3.81441539
16
Lattice="13.614116102974442 4.398477282120675 5.808091764965488 5.127490090225704 12.143952471628001 1.6040246058743308 5.107654197657451 4.471038997955139 5.6650261627520955" Properties=species:S:1:pos:R:3 unique_starting_index=30 config_type=initial n_minim_iter=7 stress="0.00020842972545035172 -0.002046163246695995 -0.002462710145707849 -0.002046163246695995 0.0011983503629770897 0.0023675660083276495 -0.002462710145707849 0.0023675660083276495 0.0018302560994389512" pbc="T T T"
Si      13.35013190      13.71640629       8.76737491
Si      10.49912849       7.29706246       4.30976763
Si       7.96390491       8.19347068       4.50640514
Si      15.88535548      12.81999807       8.57073739
Si      14.19089751      12.10052062       8.80371995
Si       9.65836288       8.91294813       4.27342259
Si      11.49621098       8.80501984       4.54607510
Si      12.35304941      12.20844891       8.53106744
Si       6.51387021       9.11216872       3.78197167
Si      17.33539018      11.90130003       9.29517086
Si      19.01523968      12.36479845       8.65150154
Si       4.83402071       8.64867030       4.42564099
Si       6.25787673       7.46859516       4.39915440
Si      17.59138366      13.54487359       8.67798813
Si      16.10875097      14.46566862       9.26360557
Si       7.74050942       6.54780013       3.81353696
16
Lattice="13.61714976889874 4.399354045854736 5.809371424147416 5.130155613964961 12.147446864735121 1.5999980078154068 5.110501511285071 4.470594003734677 5.66329263439952" Properties=species:S:1:pos:R:3 unique_starting_index=30 config_type=initial n_minim_iter=8 stress="0.0008179598961015356 0.0010631075883497693 0.0007133425971203592 0.0010631075883497693 0.0014543457401897763 -0.0004997504183033182 0.0007133425971203592 -0.0004997504183033182 -0.00012978106115428282" pbc="T T T"
Si      13.35623214      13.71880693       8.76381258
Si      10.50157475       7.29858799       4.30884949
Si       7.96655175       8.19506418       4.50407109
Si      15.89125515      12.82233074       8.56859097
Si      14.19606542      12.10259222       8.80058263
Si       9.66174147       8.91480269       4.27207943
Si      11.49964500       8.80716024       4.54561171
Si      12.35816189      12.21023468       8.52705035
Si       6.51675397       9.11415798       3.77947055
Si      17.34105292      11.90323693       9.29319152
Si      19.02054534      12.36804846       8.65004191
Si       4.83726156       8.64934646       4.42262016
Si       6.26101614       7.47009893       4.39633007
Si      17.59679076      13.54729599       8.67633200
Si      16.11432674      14.46858326       9.25937494
Si       7.74348016       6.54881166       3.81328712
16
Lattice="13.616899189835898 4.395261061306223 5.809782481137129 5.128303058700124 12.145026718949266 1.5975191882143969 5.110355759106497 4.467903100257965 5.662708026345471" Properties=species:S:1:pos:R:3 unique_starting_index=30 config_type=initial n_minim_iter=9 stress="0.0003622517121598977 0.00043603946447454313 -0.00028035319827594384 0.00043603946447454313 -0.0006158394306523058 -0.0005869378900303729 -0.00028035319827594384 -0.0005869378900303729 0.002358955945746582" pbc="T T T"
Si      13.35594861      13.71327239       8.76256772
Si      10.49960940       7.29491849       4.30744198
Si       7.96543714       8.19245389       4.50246505
Si      15.89012086      12.81573699       8.56754465
Si      14.19521200      12.09748461       8.79803434
Si       9.66034600       8.91070627       4.27197535
Si      11.49891180       8.80230860       4.54588508
Si      12.35664621      12.20588228       8.52412461
Si       6.51564854       9.11140187       3.77838828
Si      17.33990946      11.89678901       9.29162142
Si      19.01949685      12.36227953       8.64781992
Si       4.83606116       8.64591135       4.42218978
Si       6.26056920       7.46733720       4.39392829
Si      17.59498881      13.54085368       8.67608140
Si      16.11199630      14.46288682       9.25531860
Si       7.74356171       6.54530406       3.81469110
16
Lattice="13.618453981884896 4.395799318794155 5.808494407306925 5.12733302076242 12.14928725000223 1.5986870471402403 5.111274458910985 4.469613180518984 5.659780870577287" Properties=species:S:1:pos:R:3 unique_starting_index=30 config_type=initial n_minim_iter=10 stress="0.0011963437317840712 0.00011941667200788739 0.0007848253044211397 0.00011941667200788739 0.0016459221495905719 0.0018163444995999076 0.0007848253044211397 0.0018163444995999076 -0.002544915948167304" pbc="T T T"
Si      13.35743769      13.71795549       8.76053634
Si      10.49962378       7.29674426       4.30642599
Si       7.96586338       8.19559597       4.50125343
Si      15.89119808      12.81910378       8.56570890
Si      14.19613641      12.10139257       8.79453648
Si       9.66092505       8.91330718       4.27242584
Si      11.49920694       8.80390544       4.54637470
Si      12.35785452      12.21079431       8.52058763
Si       6.51569255       9.11474566       3.77806867
Si      17.34136891      11.89995409       9.28889366
Si      19.02094394      12.36596324       8.64570833
Si       4.83611753       8.64873651       4.42125399
Si       6.26081204       7.46966790       4.39160269
Si      17.59624942      13.54503185       8.67535964
Si      16.11235148      14.46772130       9.25145865
Si       7.74470998       6.54697845       3.81550368
16
Lattice="13.615711090243378 4.391713357361682 5.806265995401046 5.125060553376158 12.14898310746552 1.5926549039921458 5.109915818009329 4.466604474267265 5.65751664674758" Properties=species:S:1:pos:R:3 unique_starting_index=30 config_type=initial n_minim_iter=11 stress="0.0002881044273020319 0.00024881380609410587 -7.525982961884539e-05 0.00024881380609410587 0.0005323177551530609 -0.00034492627333160465 -7.525982961884539e-05 -0.00034492627333160465 0.0003708615200648168" pbc="T T T"
Si      13.35429502      13.71346202       8.75432948
Si      10.49639244       7.29383892       4.30210807
Si       7.96357304       8.19366102       4.49725404
Si      15.88711442      12.81363992       8.55918351
Si      14.19169881      12.09642628       8.78733913
Si       9.65898865       8.91087466       4.26909842
Si      11.49560068       8.79980040       4.54302216
Si      12.35508678      12.20750053       8.51341539
Si       6.51365603       9.11318044       3.77378695
Si      17.33703144      11.89412050       9.28265060
Si      19.01631117      12.36124658       8.63878608
Si       4.83437629       8.64605436       4.41765146
Si       6.25851603       7.46685097       4.38676028
Si      17.59217143      13.54044997       8.66967726
Si      16.10695026      14.46267719       9.24224541
Si       7.74373720       6.54462375       3.81419214
16
Lattice="13.61566820999862 4.388141340044372 5.806388704121066 5.122819756317462 12.146370165657792 1.5924232558419282 5.109949262860933 4.464753202201576 5.656176227870523" Properties=species:S:1:pos:R:3 unique_starting_index=30 config_type=initial n_minim_iter=12 stress="0.00037110806399061547 0.00010303981480358304 7.621018562176057e-05 0.00010303981480358304 9.7902707780764e-05 -0.00017074235321371147 7.621018562176057e-05 -0.00017074235321371147 0.00018043702738785355" pbc="T T T"
Si      13.35357748      13.70956845       8.75365242
Si      10.49485975       7.28969626       4.30133577
Si       7.96200995       8.19102864       4.49780497
Si      15.88642728      12.80823607       8.55718322
Si      14.19054412      12.09164405       8.78591293
Si       9.65789311       8.90762066       4.26907525
Si      11.49488263       8.79503455       4.54426173
Si      12.35355460      12.20423015       8.51072646
Si       6.51263823       9.11070540       3.77365443
Si      17.33579900      11.88855931       9.28133375
Si      19.01512762      12.35608054       8.63817453
Si       4.83330961       8.64318417       4.41681365
Si       6.25705226       7.46353203       4.38467359
Si      17.59138497      13.53573268       8.67031460
Si      16.10389960      14.45656248       9.23933317
Si       7.74453763       6.54270222       3.81565502
16
Lattice="13.615318366752343 4.387008095702463 5.805797373596221 5.121457685593929 12.146410324226485 1.5927389390669966 5.109718654573974 4.464585160066562 5.65508580883861" Properties=species:S:1:pos:R:3 unique_starting_index=30 config_type=initial n_minim_iter=13 stress="0.00032441861809488873 -6.444163511078014e-06 1.9315049900272852e-05 -6.444163511078014e-06 0.00012880688707172 -0.0002655161554706638 1.9315049900272852e-05 -0.0002655161554706638 5.086631892709696e-05" pbc="T T T"
Si      13.35261991      13.70956603       8.75298944
Si      10.49387480       7.28843755       4.30063268
Si       7.96078723       8.19070405       4.49773083
Si      15.88570748      12.80729953       8.55589129
Si      14.18949667      12.09162056       8.78501973
Si       9.65699804       8.90638302       4.26860240
Si      11.49370078       8.79379675       4.54441670
Si      12.35279392      12.20420683       8.50920543
Si       6.51201914       9.11073493       3.77385285
Si      17.33447557      11.88726865       9.27976928
Si      19.01373890      12.35506775       8.63674984
Si       4.83275581       8.64293583       4.41687228
Si       6.25620204       7.46259367       4.38376675
Si      17.59029267      13.53540991       8.66985537
Si      16.10185654      14.45534730       9.23742463
Si       7.74463816       6.54265628       3.81619749
16
Lattice="13.616811358412408 4.389684149557409 5.807958269402914 5.120772679069131 12.148990981810963 1.5998882353249226 5.110836138461368 4.4680882570462295 5.655286536500422" Properties=species:S:1:pos:R:3 unique_starting_index=30 config_type=initial n_minim_iter=14 stress="0.0001414648666987927 -0.00013529070779067854 -4.4193123344945994e-05 -0.00013529070779067854 7.126599096754159e-05 -0.00022666807605376866 -4.4193123344945994e-05 -0.00022666807605376866 0.00011476316241635972" pbc="T T T"
Si      13.35368912      13.71744811       8.75897989
Si      10.49473106       7.28931528       4.30415315
Si       7.96048540       8.19397272       4.50246414
Si      15.88793477      12.81279067       8.56066890
Si      14.19086134      12.09963244       8.78867885
Si       9.65755884       8.90713095       4.27445419
Si      11.49408455       8.79537155       4.54910781
Si      12.35433563      12.21139183       8.51402523
Si       6.51167655       9.11341073       3.77926632
Si      17.33674363      11.89335266       9.28386672
Si      19.01592209      12.36207019       8.64197838
Si       4.83249809       8.64469320       4.42115467
Si       6.25598628       7.46431930       4.38640020
Si      17.59243390      13.54244409       8.67673284
Si      16.10220566      14.46115240       9.24196063
Si       7.74621451       6.54561099       3.82117241
16
Lattice="13.621440716817672 4.3987629642938435 5.813925957072772 5.122979939848904 12.153286525783532 1.6161711844577582 5.114687083955881 4.476365995408766 5.656861334118631" Properties=species:S:1:pos:R:3 unique_starting_index=30 config_type=initial n_minim_iter=15 stress="-4.203114585299664e-05 -0.00023833274029206442 -8.724819019355162e-06 -0.00023833274029206442 -0.00016294406652101327 -4.461515447136109e-05 -8.724819019355162e-06 -4.461515447136109e-05 9.911674247610958e-05" pbc="T T T"
Si      13.36059186      13.73355686       8.77484024
Si      10.49851588       7.29485862       4.31211823
Si       7.96313567       8.19967246       4.51269667
Si      15.89597207      12.82874302       8.57426181
Si      14.19812800      12.11559165       8.79990723
Si       9.66097974       8.91282384       4.28705125
Si      11.49763824       8.80052359       4.56145189
Si      12.36146950      12.22789189       8.52550658
Si       6.51390404       9.12042111       3.79091218
Si      17.34520370      11.90799438       9.29604630
Si      19.02456914      12.37999655       8.65595709
Si       4.83453860       8.64841894       4.43100139
Si       6.25896526       7.46966241       4.39514964
Si      17.60014248      13.55875308       8.69180883
Si      16.10853872      14.47555865       9.25562262
Si       7.75056902       6.55285683       3.83133586
16
Lattice="13.62378122480794 4.4054914937478165 5.816595270464322 5.1253175031179055 12.157433545128654 1.6244107914640875 5.116951109207309 4.481704565925919 5.65734654903367" Properties=species:S:1:pos:R:3 unique_starting_index=30 config_type=initial n_minim_iter=16 stress="-0.0002988467777030642 -0.00013981044070645332 -0.00019122554667856754 -0.00013981044070645332 5.1023181384976045e-05 -0.000125905586167904 -0.00019122554667856754 -0.000125905586167904 0.00019103811116710965" pbc="T T T"
Si      13.36524591      13.74493387       8.78207572
Si      10.50080392       7.29969574       4.31627689
Si       7.96556172       8.20427696       4.51810865
Si      15.90048811      12.84035264       8.58024396
Si      14.20319202      12.12700879       8.80525324
Si       9.66285782       8.91762081       4.29309937
Si      11.49951767       8.80527781       4.56791256
Si      12.36653217      12.23935179       8.53044006
Si       6.51578990       9.12561538       3.79684969
Si      17.35025994      11.91901423       9.30150292
Si      19.02936337      12.39251370       8.66309974
Si       4.83668647       8.65211590       4.43525287
Si       6.26111989       7.47420417       4.39935348
Si      17.60492995      13.57042544       8.69899913
Si      16.11304802      14.48682308       9.26228962
Si       7.75300182       6.55780653       3.83606299
16
Lattice="13.634688344571012 4.426553549958463 5.827578503935042 5.13393096237843 12.167852046132563 1.653020323765546 5.126267760193768 4.4983100434211725 5.659438548697376" Properties=species:S:1:pos:R:3 unique_starting_index=30 config_type=initial n_minim_iter=17 stress="-0.000451558458593425 -3.7552943703918574e-05 -0.00015688683104539636 -3.7552943703918574e-05 -7.717398402232094e-05 0.00012216439913977304 -0.00015688683104539636 0.00012216439913977304 -6.335826158308204e-06" pbc="T T T"
Si      13.38368048      13.77891237       8.80712071
Si      10.51120659       7.31380327       4.33291666
Si       7.97481501       8.21704558       4.53737455
Si      15.92007206      12.87567006       8.60266283
Si      14.22253815      12.16105585       8.82525213
Si       9.67234891       8.93165979       4.31478524
Si      11.50819337       8.81840346       4.59124469
Si      12.38669370      12.27431218       8.54879269
Si       6.52504095       9.13970068       3.81756540
Si      17.36984612      11.95301496       9.32247198
Si      19.05102850      12.42909508       8.68971808
Si       4.84385856       8.66362056       4.45031930
Si       6.27116059       7.48755245       4.41392819
Si      17.62372647      13.60516319       8.72610918
Si      16.13211040      14.52057789       9.28783716
Si       7.76277667       6.57213775       3.85220022
16
Lattice="13.642776872266811 4.44512515535806 5.83365227208447 5.141168478438889 12.176756988851256 1.6769413087115188 5.133907087025165 4.512782882179189 5.657893054516477" Properties=species:S:1:pos:R:3 unique_starting_index=30 config_type=initial n_minim_iter=18 stress="-0.0005639624974735086 0.00015655504008397968 -0.00031570726999462115 0.00015655504008397968 7.609077227153171e-06 0.0002437963930237464 -0.00031570726999462115 0.0002437963930237464 -0.00025184075066156137" pbc="T T T"
Si      13.39948539      13.80938875       8.82265875
Si      10.51836705       7.32527627       4.34582788
Si       7.98270295       8.22805320       4.55109093
Si      15.93514949      12.90661183       8.61739570
Si      14.23809496      12.19017874       8.83755862
Si       9.67975748       8.94448628       4.33092802
Si      11.51472388       8.83006328       4.60890496
Si      12.40312856      12.30460175       8.55958168
Si       6.53191428       9.15102777       3.83343459
Si      17.38593816      11.98363726       9.33505204
Si      19.06803834      12.46104937       8.70637352
Si       4.84981410       8.67361566       4.46211312
Si       6.27837524       7.49903180       4.42503218
Si      17.63947719      13.63563323       8.74345446
Si      16.14619988      14.55016667       9.30592069
Si       7.77165256       6.58449835       3.86256594
16
Lattice="13.657436031698373 4.473024030072797 5.838662106877463 5.153394819865653 12.187177064322073 1.713036308598494 5.147667156616035 4.534009313941231 5.648809677969449" Properties=species:S:1:pos:R:3 unique_starting_index=30 config_type=initial n_minim_iter=19 stress="-0.00021345316281667307 0.0003626962493532501 -0.0002767797163603488 0.0003626962493532501 0.0002253274419587073 -0.0005030414023115741 -0.0002767797163603488 -0.0005030414023115741 -0.001986980529798522" pbc="T T T"
Si      13.42621889      13.85238494       8.83677191
Si      10.53227912       7.34182546       4.36373618
Si       7.99477613       8.24332243       4.56904683
Si      15.96372188      12.95088798       8.63146126
Si      14.26729204      12.23227320       8.84583490
Si       9.69120597       8.96193721       4.35467319
Si      11.52645331       8.84672956       4.63386396
Si      12.43204470      12.34748085       8.56664413
Si       6.54518550       9.16718531       3.85366429
Si      17.41331251      12.02702510       9.34684381
Si      19.09708050      12.50885048       8.72493598
Si       4.86141750       8.68535993       4.47557211
Si       6.29141846       7.51306026       4.43863582
Si      17.66707954      13.68115015       8.76187227
Si      16.17141670      14.59241067       9.32677230
Si       7.78708131       6.60179974       3.87373580
16
Lattice="13.699479129059128 4.559589380602131 5.8539044454550515 5.194510687942073 12.208401358994335 1.8229205530053318 5.18827360440205 4.59645280864319 5.624796526330034" Properties=species:S:1:pos:R:3 unique_starting_index=30 config_type=initial n_minim_iter=20 stress="0.0018654538763706536 0.0026063965405519677 -0.0007996104003372454 0.0026063965405519677 0.0009597533206626314 -0.0019400036901108177 -0.0007996104003372454 -0.0019400036901108177 -0.007987772133684184" pbc="T T T"
Si      13.50915281      13.97212590       8.88258199
Si      10.57311061       7.39231765       4.41903953
Si       8.03326841       8.28438465       4.62505225
Si      16.04899502      13.08005890       8.67656927
Si      14.35252723      12.35595212       8.87562222
Si       9.72973619       9.00849142       4.42599931
Si      11.56323850       8.89731522       4.71041706
Si      12.51902492      12.46712833       8.59120447
Si       6.58323225       9.21280104       3.91530376
Si      17.49903117      12.15164251       9.38631776
Si      19.18603601      12.64786145       8.78319536
Si       4.89622742       8.71658210       4.51842617
Si       6.33216541       7.54999300       4.47929376
Si      17.75009801      13.81445055       8.82232777
Si      16.24934432      14.71248246       9.39358244
Si       7.83291910       6.65196109       3.90803908
16
Lattice="13.726219300549749 4.6327749630234765 5.863938126162892 5.2251085217145095 12.230970857215324 1.9134550875912588 5.216516941383171 4.650284788774542 5.607425634964773" Properties=species:S:1:pos:R:3 unique_starting_index=30 config_type=initial n_minim_iter=21 stress="0.002642355647025785 0.003943493127668114 -0.0017334295365702803 0.003943493127668114 0.002021545591930533 -0.0023901270321250367 -0.0017334295365702803 -0.0023901270321250367 -0.012520833651897309" pbc="T T T"
Si      13.56402777      14.07641361       8.92142960
Si      10.60381700       7.43761700       4.46338925
Si       8.05874750       8.31979268       4.67044290
Si      16.10909727      13.19423793       8.71437595
Si      14.41373791      12.46218485       8.90265683
Si       9.75410685       9.05184576       4.48216202
Si      11.58708641       8.94348202       4.77073901
Si      12.58075836      12.57054858       8.61407983
Si       6.60882731       9.25352681       3.96234275
Si      17.55901746      12.26050380       9.42247610
Si      19.24558860      12.76641419       8.82680196
Si       4.92225616       8.74761642       4.55801688
Si       6.35897207       7.58505804       4.51001576
Si      17.80887269      13.92897257       8.87480309
Si      16.30396555      14.81891593       9.44885193
Si       7.86387922       6.69511468       3.93596692
