16
Lattice="14.288214602467827 4.259620275688736 8.668781253655055 5.165560325369859 11.610568647867808 3.2770333908223668 6.025626183220059 4.508963572270841 6.717724966390417" Properties=species:S:1:pos:R:3 unique_starting_index=30 config_type=initial n_minim_iter=1 energy=-2734.143573293111 free_energy=-2734.143573293111 pbc="T T T"
Si      14.77869565      13.52649708      11.99686418
Si      10.70070546       6.85265542       6.66667543
Si       8.18278202       7.81627827       6.43907157
Si      17.29661909      12.56287423      12.22446804
Si      15.58674029      11.88182954      12.00148065
Si       9.89266082       8.49732295       6.66205896
Si      11.61269244       8.28212416       7.32497328
Si      13.86670867      12.09702834      11.33856634
Si       6.91244454       8.83190706       5.54006891
Si      18.56695657      11.54724543      13.12347070
Si      20.32834541      12.09413763      12.91142084
Si       5.15105570       8.28501486       5.75211877
Si       6.57496170       7.10570777       5.85383762
Si      18.90443941      13.27344472      12.80970199
Si      17.29368673      14.18401080      12.96836533
Si       8.18571438       6.19514169       5.69517428
16
Lattice="14.28870678477564 4.259662926283095 8.668866855295217 5.165725591600812 11.61063093755746 3.2771131511334457 6.025851297932184 4.509009008671789 6.717762230650674" Properties=species:S:1:pos:R:3 unique_starting_index=30 config_type=initial n_minim_iter=2 stress="0.0007769770761797048 2.79324194515444e-05 7.911569591619174e-05 2.79324194515444e-05 0.0002662229183507026 -5.98014243345975e-05 7.911569591619174e-05 -5.98014243345975e-05 0.00027943165739717333" pbc="T T T"
Si      14.77920507      13.52659376      11.99698433
Si      10.70107861       6.85270911       6.66675791
Si       8.18305783       7.81634006       6.43914442
Si      17.29722584      12.56296282      12.22459782
Si      15.58728232      11.88193437      12.00160856
Si       9.89300136       8.49736850       6.66213368
Si      11.61309036       8.28218793       7.32506456
Si      13.86719331      12.09711494      11.33867767
Si       6.91267792       8.83197137       5.54013017
Si      18.56760576      11.54733151      13.12361206
Si      20.32904171      12.09423109      12.91157503
Si       5.15124196       8.28507178       5.75216721
Si       6.57519279       7.10575536       5.85389978
Si      18.90509088      13.27354751      12.80984246
Si      17.29428142      14.18411898      12.96851018
Si       8.18600225       6.19518390       5.69523205
16
Lattice="14.288997465842035 4.259691012963126 8.668708656943808 5.165721282506362 11.610407047382559 3.2773812935582294 6.026002378347125 4.509058326087977 6.717583047607022" Properties=species:S:1:pos:R:3 unique_starting_index=30 config_type=initial n_minim_iter=3 stress="0.00028026479297302363 -9.436937636354001e-05 0.0001786924392057079 -9.436937636354001e-05 -0.00044767342408806967 2.527307910588805e-06 0.0001786924392057079 2.527307910588805e-06 -0.0010395804764567853" pbc="T T T"
Si      14.77939718      13.52647333      11.99691688
Si      10.70132395       6.85268305       6.66675612
Si       8.18312790       7.81631949       6.43915358
Si      17.29759323      12.56283690      12.22451942
Si      15.58754695      11.88197399      12.00157681
Si       9.89317417       8.49718240       6.66209619
Si      11.61329904       8.28214317       7.32506722
Si      13.86742209      12.09701321      11.33860578
Si       6.91273362       8.83190448       5.54013091
Si      18.56798751      11.54725190      13.12354209
Si      20.32939950      12.09416542      12.91155437
Si       5.15132163       8.28499096       5.75211863
Si       6.57529917       7.10568037       5.85391104
Si      18.90542196      13.27347602      12.80976196
Si      17.29453780      14.18403974      12.96850451
Si       8.18618332       6.19511665       5.69516849
16
Lattice="14.28859551644449 4.260239882927279 8.66950178886435 5.165567727116426 11.610986348212833 3.278145178230396 6.025827115412934 4.509532601678179 6.718259594896462" Properties=species:S:1:pos:R:3 unique_starting_index=30 config_type=initial n_minim_iter=4 stress="-0.00011360035556134619 -0.000277234670583825 0.00010109207704118608 -0.000277234670583825 0.000262822924123634 0.00025381941365442567 0.00010109207704118608 0.00025381941365442567 9.760814170806096e-06" pbc="T T T"
Si      14.77885820      13.52747869      11.99835401
Si      10.70113215       6.85328014       6.66755255
Si       8.18277911       7.81696820       6.44001020
Si      17.29721125      12.56379063      12.22589636
Si      15.58706995      11.88310602      12.00304675
Si       9.89292040       8.49765281       6.66285981
Si      11.61300132       8.28283800       7.32595303
Si      13.86698904      12.09792084      11.33995354
Si       6.91247443       8.83254808       5.54082781
Si      18.56751593      11.54821075      13.12507875
Si      20.32882670      12.09522673      12.91304225
Si       5.15116366       8.28553210       5.75286431
Si       6.57509582       7.10615813       5.85472678
Si      18.90489454      13.27460070      12.81117978
Si      17.29397192      14.18518811      12.97013604
Si       8.18601844       6.19557072       5.69577052
16
Lattice="14.288725112078541 4.260420757760528 8.669378197924047 5.165914893470405 11.61083665221949 3.2779192805952997 6.025928808895792 4.509495976204226 6.718198363133321" Properties=species:S:1:pos:R:3 unique_starting_index=30 config_type=initial n_minim_iter=5 stress="1.9818752890240656e-05 0.0001032135331250776 -4.618535823524643e-05 0.0001032135331250776 -3.87854713647407e-05 -3.368082031740324e-05 -4.618535823524643e-05 -3.368082031740324e-05 1.5778406311510997e-05" pbc="T T T"
Si      14.77920321      13.52741424      11.99808947
Si      10.70136560       6.85333914       6.66740637
Si       8.18296785       7.81693979       6.43986900
Si      17.29760096      12.56381359      12.22562685
Si      15.58739699      11.88313207      12.00282883
Si       9.89317183       8.49762131       6.66266701
Si      11.61325538       8.28288158       7.32575680
Si      13.86731343      12.09787180      11.33973905
Si       6.91270873       8.83247550       5.54062864
Si      18.56786009      11.54827789      13.12486720
Si      20.32918748      12.09535753      12.91276811
Si       5.15138133       8.28539585       5.75272773
Si       6.57528290       7.10608850       5.85462460
Si      18.90528592      13.27466488      12.81087124
Si      17.29435302      14.18517506      12.96987155
Si       8.18621580       6.19557832       5.69562430
16
Lattice="14.288752031237943 4.260215979159488 8.669500602721634 5.165853559639702 11.610670909626052 3.2778898569197366 6.025938838371814 4.509362449150349 6.718254497730586" Properties=species:S:1:pos:R:3 unique_starting_index=30 config_type=initial n_minim_iter=6 stress="-3.575970841934047e-08 -0.000328859133196366 8.586796813014742e-05 -0.000328859133196366 -9.430571456052985e-05 -0.00036017737734794737 8.586796813014742e-05 -0.00036017737734794737 0.0001048376590936911" pbc="T T T"
Si      14.77912411      13.52712198      11.99814723
Si      10.70142032       6.85312735       6.66749773
Si       8.18292211       7.81676436       6.43991145
Si      17.29762232      12.56348498      12.22573350
Si      15.58741674      11.88281983      12.00292616
Si       9.89312769       8.49742951       6.66271880
Si      11.61325765       8.28266512       7.32576560
Si      13.86728678      12.09758422      11.33987936
Si       6.91262373       8.83230980       5.54057358
Si      18.56792070      11.54793954      13.12507138
Si      20.32918562      12.09500814      12.91289196
Si       5.15135880       8.28524119       5.75275299
Si       6.57527501       7.10592162       5.85469231
Si      18.90526941      13.27432772      12.81095264
Si      17.29428750      14.18481892      12.96999846
Si       8.18625693       6.19543042       5.69564650
16
Lattice="14.288896830962777 4.261248658472117 8.669571084005106 5.1663359154571875 11.611076839871417 3.278391406447625 6.026098883531286 4.509949910136995 6.718394445428387" Properties=species:S:1:pos:R:3 unique_starting_index=30 config_type=initial n_minim_iter=7 stress="1.764225837371851e-05 -2.4636847776839235e-05 -2.6641615752775667e-05 -2.4636847776839235e-05 -1.8292346926784362e-05 4.811027149357148e-05 -2.6641615752775667e-05 4.811027149357148e-05 -5.599749344430629e-07" pbc="T T T"
Si      14.77956325      13.52839897      11.99860250
Si      10.70176838       6.85387644       6.66775443
Si       8.18318685       7.81744671       6.44019092
Si      17.29814477      12.56482870      12.22616601
Si      15.58791675      11.88406884      12.00332518
Si       9.89341488       8.49820657       6.66303176
Si      11.61359589       8.28352790       7.32596372
Si      13.86773574      12.09874751      11.34039321
Si       6.91289699       8.83290135       5.54081773
Si      18.56843464      11.54937406      13.12553920
Si      20.32964968      12.09651236      12.91325567
Si       5.15168195       8.28576305       5.75310127
Si       6.57555465       7.10648302       5.85500029
Si      18.90577698      13.27579238      12.81135665
Si      17.29476132      14.18619512      12.97053345
Si       8.18657031       6.19608029       5.69582349
16
Lattice="14.28906924855825 4.262071090391044 8.669725435683358 5.166882223281322 11.611497451151344 3.278546900460139 6.026335044178696 4.510360102673605 6.7184708752271645" Properties=species:S:1:pos:R:3 unique_starting_index=30 config_type=initial n_minim_iter=8 stress="-8.528438888280255e-05 7.967603034719339e-05 0.00015065165680192954 7.967603034719339e-05 0.0001902934222358876 -7.201258814944633e-05 0.00015065165680192954 -7.201258814944633e-05 -6.528696532963903e-05" pbc="T T T"
Si      14.78012954      13.52942799      11.99880847
Si      10.70215697       6.85450066       6.66793474
Si       8.18360259       7.81800143       6.44030109
Si      17.29868392      12.56592721      12.22644212
Si      15.58855761      11.88509693      12.00359991
Si       9.89372891       8.49883171       6.66314330
Si      11.61394018       8.28424231       7.32609352
Si      13.86834634      12.09968633      11.34064969
Si       6.91324758       8.83343639       5.54087201
Si      18.56903893      11.55049226      13.12587121
Si      20.33021359      12.09772022      12.91350478
Si       5.15207292       8.28620843       5.75323844
Si       6.57591804       7.10691915       5.85515499
Si      18.90636848      13.27700949      12.81158822
Si      17.29533894      14.18732014      12.97080670
Si       8.18694758       6.19660850       5.69593651
16
Lattice="14.28910053616906 4.2623585648871245 8.669542848618768 5.167052986892218 11.611253405569713 3.278720010249172 6.026310999770586 4.510458920027526 6.718491731337025" Properties=species:S:1:pos:R:3 unique_starting_index=30 config_type=initial n_minim_iter=9 stress="7.505994431291871e-05 -0.00010702391217302296 -0.00023505045186962434 -0.00010702391217302296 -2.1762566475499194e-06 1.0576708217145465e-05 -0.00023505045186962434 1.0576708217145465e-05 -5.1189890222137537e-05" pbc="T T T"
Si      14.78016358      13.52950306      11.99884098
Si      10.70230094       6.85456783       6.66791361
Si       8.18368400       7.81801300       6.44031695
Si      17.29878053      12.56605789      12.22643764
Si      15.58869446      11.88522645      12.00362945
Si       9.89377006       8.49884444       6.66312514
Si      11.61398703       8.28430019       7.32604841
Si      13.86847749      12.09977070      11.34070618
Si       6.91327910       8.83339942       5.54090731
Si      18.56918542      11.55067147      13.12584728
Si      20.33036330      12.09789194      12.91338414
Si       5.15210122       8.28617895       5.75337045
Si       6.57599915       7.10691153       5.85524433
Si      18.90646537      13.27715936      12.81151026
Si      17.29537407      14.18741073      12.97082385
Si       8.18709046       6.19666016       5.69593074
16
Lattice="14.289904909729241 4.263859831573003 8.670911868129533 5.168330403684415 11.610858591264275 3.2798160901008875 6.0270510863635876 4.511017594397116 6.719398254499169" Properties=species:S:1:pos:R:3 unique_starting_index=30 config_type=initial n_minim_iter=10 stress="1.6212928335076878e-05 -1.0861340980199063e-05 0.000204356670473625 -1.0861340980199063e-05 -0.0004682567776867159 0.00015729486096933737 0.000204356670473625 0.00015729486096933737 0.00027560373900248846" pbc="T T T"
Si      14.78181476      13.53046244      12.00086647
Si      10.70347164       6.85527358       6.66925975
Si       8.18473962       7.81843588       6.44142483
Si      17.30054678      12.56730014      12.22870138
Si      15.59048604      11.88633457      12.00575000
Si       9.89480036       8.49940145       6.66437621
Si      11.61497422       8.28503973       7.32746236
Si      13.87031218      12.10069629      11.34266385
Si       6.91422689       8.83364052       5.54191403
Si      18.57105951      11.55209549      13.12821218
Si      20.33216438      12.09937810      12.91574693
Si       5.15312202       8.28635792       5.75437928
Si       6.57709293       7.10724526       5.85635637
Si      18.90819347      13.27849075      12.81376984
Si      17.29707287      14.18853888      12.97311848
Si       8.18821353       6.19719714       5.69700773
16
Lattice="14.290692021042965 4.266914656176888 8.67127475756424 5.17046439498518 11.61193434052611 3.2804678672471805 6.027907062378387 4.512454345892084 6.719698681738761" Properties=species:S:1:pos:R:3 unique_starting_index=30 config_type=initial n_minim_iter=11 stress="-6.981529888120093e-06 -8.371203530719905e-06 -6.329036669684483e-05 -8.371203530719905e-06 0.000171980345315052 -2.6869016206103587e-05 -6.329036669684483e-05 -2.6869016206103587e-05 -9.491642350128838e-05" pbc="T T T"
Si      14.78396098      13.53392791      12.00154813
Si      10.70510250       6.85737543       6.66989318
Si       8.18616226       7.82021409       6.44178555
Si      17.30290122      12.57108926      12.22965576
Si      15.59290501      11.88974796      12.00662994
Si       9.89615847       8.50155538       6.66481137
Si      11.61624897       8.28743355       7.32804348
Si      13.87281451      12.10386979      11.34339782
Si       6.91556225       8.83529038       5.54219255
Si      18.57350123      11.55601297      13.12924876
Si      20.33451934      12.10352894      12.91670367
Si       5.15454414       8.28777440       5.75473764
Si       6.57871381       7.10876587       5.85692430
Si      18.91034967      13.28253747      12.81451701
Si      17.29918726      14.19239982      12.97395059
Si       8.18987622       6.19890353       5.69749072
16
Lattice="14.2917610746423 4.2692344998638925 8.672596517857022 5.1724306182402 11.611814527946981 3.2815297182561443 6.028910493456682 4.5133474548475245 6.720579945936388" Properties=species:S:1:pos:R:3 unique_starting_index=30 config_type=initial n_minim_iter=12 stress="2.781593724838452e-05 -1.1167562148585814e-05 -4.433900371270542e-06 -1.1167562148585814e-05 -5.8411505014002134e-05 4.303296635207518e-05 -4.433900371270542e-06 4.303296635207518e-05 6.061487724497656e-05" pbc="T T T"
Si      14.78634739      13.53574499      12.00349320
Si      10.70675480       6.85865149       6.67121298
Si       8.18767642       7.82117479       6.44288935
Si      17.30542577      12.57322169      12.23181683
Si      15.59561166      11.89168967      12.00870478
Si       9.89749053       8.50270681       6.66600140
Si      11.61773592       8.28880743       7.32946758
Si      13.87536627      12.10558905      11.34523860
Si       6.91694843       8.83590535       5.54308663
Si      18.57615375      11.55849113      13.13161956
Si      20.33710068      12.10618061      12.91907934
Si       5.15600150       8.28821587       5.75562684
Si       6.58034589       7.10951009       5.85802005
Si      18.91275630      13.28488639      12.81668613
Si      17.30150918      14.19459301      12.97611796
Si       8.19159301       6.19980347       5.69858822
16
Lattice="14.293858296087466 4.274515938581794 8.67447239024319 5.176948552117086 11.612693958678328 3.282683499517015 6.031127026003645 4.515439280250125 6.721557223728179" Properties=species:S:1:pos:R:3 unique_starting_index=30 config_type=initial n_minim_iter=13 stress="2.7028837577228538e-05 -1.564350232710675e-05 -1.134054322347161e-05 -1.564350232710675e-05 0.00010375998985479644 1.705013576944287e-05 -1.134054322347161e-05 1.705013576944287e-05 -1.6051558280093374e-05" pbc="T T T"
Si      14.79171118      13.54052674      12.00575836
Si      10.71022269       6.86212244       6.67295476
Si       8.19102176       7.82400959       6.44417201
Si      17.31091211      12.57863959      12.23454110
Si      15.60138419      11.89666056      12.01122542
Si       9.90054969       8.50598862       6.66748769
Si      11.62065982       8.29262934       7.33115170
Si      13.88127406      12.11001983      11.34756141
Si       6.92010470       8.83804403       5.54393547
Si      18.58182917      11.56460515      13.13477764
Si      20.34258492      12.11305091      12.92207602
Si       5.15934896       8.28959827       5.75663709
Si       6.58413819       7.11155558       5.85938517
Si      18.91779568      13.29109360      12.81932794
Si      17.30634094      14.20050368      12.97863212
Si       8.19559294       6.20214550       5.70008099
16
Lattice="14.295549844924194 4.278229814959251 8.676156868692885 5.180522023669951 11.6125046701786 3.28350551530171 6.032915009578855 4.516655382092499 6.722425513270009" Properties=species:S:1:pos:R:3 unique_starting_index=30 config_type=initial n_minim_iter=14 stress="4.650247016416997e-05 -1.8708897918590807e-05 4.455895427704538e-05 -1.8708897918590807e-05 -2.8814033621580054e-05 4.94168257232155e-05 4.455895427704538e-05 4.94168257232155e-05 4.101518049457657e-05" pbc="T T T"
Si      14.79606218      13.54310934      12.00764516
Si      10.71292470       6.86428053       6.67444273
Si       8.19369803       7.82550825       6.44529998
Si      17.31528885      12.58188162      12.23678792
Si      15.60591899      11.89952023      12.01335617
Si       9.90306788       8.50786964       6.66873172
Si      11.62315918       8.29503523       7.33258019
Si      13.88582770      12.11235463      11.34950771
Si       6.92255528       8.83904690       5.54468410
Si      18.58643159      11.56834296      13.13740380
Si      20.34718129      12.11734462      12.92460500
Si       5.16180559       8.29004525       5.75748290
Si       6.58715926       7.11251430       5.86041821
Si      18.92182762      13.29487557      12.82166969
Si      17.31018051      14.20385153      12.98074477
Si       8.19880637       6.20353834       5.70134313
16
Lattice="14.29667921396122 4.281305795079534 8.676790307319875 5.183583763856602 11.612556280765496 3.2834659318161834 6.034253067013508 4.5175860524448455 6.722638594013161" Properties=species:S:1:pos:R:3 unique_starting_index=30 config_type=initial n_minim_iter=15 stress="4.465779238884457e-05 1.7719119734206136e-05 -1.585830694259404e-05 1.7719119734206136e-05 -7.706056437255677e-06 2.476884285300688e-05 -1.585830694259404e-05 2.476884285300688e-05 3.095813162560688e-05" pbc="T T T"
Si      14.79944534      13.54530952      12.00791486
Si      10.71507070       6.86613861       6.67497998
Si       8.19580718       7.82676290       6.44558952
Si      17.31870887      12.58468523      12.23730531
Si      15.60951633      11.90191934      12.01390848
Si       9.90499972       8.50952878       6.66898636
Si      11.62504543       8.29722432       7.33293742
Si      13.88947061      12.11422381      11.34995741
Si       6.92441022       8.83999551       5.54472833
Si      18.59010582      11.57145261      13.13816650
Si      20.35055860      12.12098890      12.92538381
Si       5.16395745       8.29045923       5.75751103
Si       6.58945001       7.11331404       5.86058430
Si      18.92506603      13.29813409      12.82231053
Si      17.31307129      14.20667470      12.98107798
Si       8.20144476       6.20477343       5.70181686
16
Lattice="14.298730793868804 4.285649009236897 8.677927814305654 5.188377560031098 11.612514695707098 3.283054656279075 6.036544048469663 4.518737066794528 6.722863537784942" Properties=species:S:1:pos:R:3 unique_starting_index=30 config_type=initial n_minim_iter=16 stress="6.227238685678854e-05 -1.0712638317758683e-05 5.466554345987184e-06 -1.0712638317758683e-05 -2.6842495687478034e-05 -1.7820983468285537e-05 5.466554345987184e-06 -1.7820983468285537e-05 -2.2851927476571054e-05" pbc="T T T"
Si      14.80474470      13.54812311      12.00803945
Si      10.71890771       6.86877766       6.67580656
Si       8.19910078       7.82846156       6.44580189
Si      17.32455163      12.58843921      12.23804412
Si      15.61562625      11.90507020      12.01459623
Si       9.90802616       8.51183057       6.66924977
Si      11.62822403       8.30029647       7.33335504
Si      13.89542837      12.11660430      11.35049097
Si       6.92767520       8.84118279       5.54474891
Si      18.59597720      11.57571798      13.13909710
Si      20.35627909      12.12593318      12.92647996
Si       5.16737332       8.29096759       5.75736605
Si       6.59315933       7.11419108       5.86062784
Si      18.93049307      13.30270970      12.82321817
Si      17.31786290      14.21046536      12.98128850
Si       8.20578951       6.20643541       5.70255751
16
Lattice="14.3002076056055 4.288960570685104 8.679602801514402 5.191557719057163 11.6132723174437 3.2833892690723276 6.03813298426131 4.5199309145486275 6.723704963459841" Properties=species:S:1:pos:R:3 unique_starting_index=30 config_type=initial n_minim_iter=17 stress="6.634932079609822e-05 -3.339038477042858e-06 6.407009325309659e-06 -3.339038477042858e-06 -1.8657706654924485e-05 -1.7088669137446505e-05 6.407009325309659e-06 -1.7088669137446505e-05 -2.2756522565213202e-05" pbc="T T T"
Si      14.80835192      13.55098512      12.00972290
Si      10.72154638       6.87117868       6.67697414
Si       8.20142074       7.83019369       6.44665857
Si      17.32847757      12.59197011      12.24003846
Si      15.61970262      11.90815938      12.01648580
Si       9.91019569       8.51400442       6.67021123
Si      11.63034769       8.30304449       7.33450968
Si      13.89955062      12.11911931      11.35218735
Si       6.92974342       8.84222646       5.54545812
Si      18.60015489      11.57993734      13.14123891
Si      20.36030786      12.13021631      12.92879256
Si       5.16959045       8.29194749       5.75790448
Si       6.59559044       7.11524307       5.86138162
Si      18.93430787      13.30692074      12.82531542
Si      17.32136796      14.21417554      12.98291662
Si       8.20853035       6.20798826       5.70378041
16
Lattice="14.301273687925939 4.291658342544359 8.681543944968656 5.193910382557559 11.61417585148411 3.2840498806111174 6.039341588591643 4.5210325577153645 6.724820074862006" Properties=species:S:1:pos:R:3 unique_starting_index=30 config_type=initial n_minim_iter=18 stress="5.1302613888203364e-05 9.180807594474224e-06 6.302349828875489e-06 9.180807594474224e-06 -1.1482900672760236e-05 -1.9491901224010936e-05 6.302349828875489e-06 -1.9491901224010936e-05 -2.3493100839563923e-05" pbc="T T T"
Si      14.81104600      13.55359557      12.01208469
Si      10.72347965       6.87327119       6.67832921
Si       8.20308853       7.83153320       6.44787602
Si      17.33143713      12.59533356      12.24253788
Si      15.62282875      11.91093620      12.01901627
Si       9.91169690       8.51593056       6.67139763
Si      11.63187000       8.30551057       7.33593667
Si      13.90265566      12.12135618      11.35447723
Si       6.93133341       8.84335289       5.54648047
Si      18.60319225      11.58351386      13.14393343
Si      20.36327073      12.13400174      12.93162441
Si       5.17125493       8.29286501       5.75878949
Si       6.59747261       7.11645173       5.86244225
Si      18.93705305      13.31041502      12.82797165
Si      17.32404561      14.21746110      12.98522403
Si       8.21048004       6.20940565       5.70518987
16
Lattice="14.301676143958215 4.29282300783619 8.682655762560351 5.194834009369131 11.614617541352722 3.284530500812518 6.0398325090880265 4.521550146739247 6.725503707023822" Properties=species:S:1:pos:R:3 unique_starting_index=30 config_type=initial n_minim_iter=19 stress="3.9627931603819476e-05 -2.3441847888240655e-06 -2.7491747651628227e-06 -2.3441847888240655e-06 -1.085458519945807e-05 -6.9660881790829395e-06 -2.7491747651628227e-06 -6.9660881790829395e-06 -1.5534018334179167e-05" pbc="T T T"
Si      14.81207123      13.55474872      12.01350626
Si      10.72427143       6.87424197       6.67918371
Si       8.20379021       7.83213797       6.44866920
Si      17.33255246      12.59685272      12.24402077
Si      15.62405881      11.91218983      12.02048277
Si       9.91228386       8.51680087       6.67220720
Si      11.63241110       8.30656007       7.33677418
Si      13.90393156      12.12243063      11.35591579
Si       6.93198021       8.84391354       5.54713454
Si      18.60436245      11.58507716      13.14555543
Si      20.36448483      12.13569181      12.93337808
Si       5.17185783       8.29329888       5.75931189
Si       6.59815854       7.11704470       5.86308931
Si      18.93818412      13.31194600      12.82960066
Si      17.32506625      14.21897230      12.98669929
Si       8.21127641       6.21001839       5.70599068
16
Lattice="14.302083187794654 4.29397812409552 8.684255511503125 5.195716152290053 11.615186114587527 3.285191544528911 6.040371638114819 4.522098962897984 6.726468872095034" Properties=species:S:1:pos:R:3 unique_starting_index=30 config_type=initial n_minim_iter=20 stress="2.060891622693743e-05 6.581281561087904e-06 -6.908596227653004e-06 6.581281561087904e-06 1.2967775723750635e-05 7.780178079303781e-07 -6.908596227653004e-06 7.780178079303781e-07 -9.16385329300708e-06" pbc="T T T"
Si      14.81327702      13.55598109      12.01546958
Si      10.72489396       6.87528211       6.68044635
Si       8.20442824       7.83281538       6.44971682
Si      17.33374274      12.59844782      12.24619911
Si      15.62533316      11.91355138      12.02258098
Si       9.91283782       8.51771182       6.67333495
Si      11.63297309       8.30757429       7.33794064
Si      13.90519789      12.12368891      11.35797529
Si       6.93258942       8.84455587       5.54817065
Si      18.60558156      11.58670733      13.14774528
Si      20.36567900      12.13738759      12.93586281
Si       5.17249198       8.29387561       5.76005312
Si       6.59885447       7.11768508       5.86407819
Si      18.93931651      13.31357813      12.83183774
Si      17.32612277      14.22062005      12.98888745
Si       8.21204821       6.21064315       5.70702848
16
Lattice="14.302375487962953 4.294397082804351 8.685774933327783 5.196220496173659 11.615120483107228 3.2857022080776175 6.040787236409154 4.522202265853057 6.727331649667943" Properties=species:S:1:pos:R:3 unique_starting_index=30 config_type=initial n_minim_iter=21 stress="4.175156162521832e-06 -9.900560285386427e-07 -1.0720675840485171e-05 -9.900560285386427e-07 6.00630260636645e-06 4.209105190504217e-06 -1.0720675840485171e-05 4.209105190504217e-06 -1.5659351884588437e-06" pbc="T T T"
Si      14.81412464      13.55622358      12.01721547
Si      10.72525858       6.87549626       6.68159332
Si       8.20483909       7.83291454       6.45063870
Si      17.33454413      12.59880529      12.24817009
Si      15.62622575      11.91378188      12.02447369
Si       9.91315748       8.51793795       6.67433510
Si      11.63326017       8.30788060       7.33905887
Si      13.90612305      12.12383923      11.35974992
Si       6.93302324       8.84457798       5.54905328
Si      18.60635998      11.58714185      13.14975551
Si      20.36651500      12.13785340      12.93817638
Si       5.17286822       8.29386643       5.76063241
Si       6.59928110       7.11773452       5.86498035
Si      18.94010212      13.31398532      12.83382845
Si      17.32681287      14.22093032      12.99091533
Si       8.21257035       6.21078951       5.70789346
