24
Lattice="8.755566207704288 0.4828752822264577 -0.46468051493242124 -3.838769164383612 6.794358717026622 1.663817983555181 -0.6408549222448164 1.7314847775178122 8.665641581605723" Properties=species:S:1:pos:R:3 unique_starting_index=90 config_type=initial n_minim_iter=1 energy=-3907.29766642919 free_energy=-3907.29766642919 pbc="T T T"
Si       5.94954428       1.61596518       5.04201571
Si       1.01237023       3.12771483       0.55094320
Si       5.77000938       5.98320586       3.46694335
Si       1.81913653       0.93541828       1.71914690
Si       4.82163400       4.59461274       9.46488624
Si      -2.82475161       6.76595333       8.56991565
Si       0.84641947       2.11317687       3.63149306
Si       2.04245083       5.21016976       7.51311579
Si      -2.68920680       9.01322912       7.73338867
Si       5.32960575       3.45510803       6.73208390
Si       0.58375381       4.20667886       2.63388349
Si       3.66130154       7.02399919       3.07391908
Si       3.51158385       6.82402296       0.73084162
Si       6.98304344       5.18979123       7.59889166
Si      -1.75438644       4.53540336       2.16462225
Si      -3.92215282       9.44343071       9.87563851
Si      -1.50111455       2.02190039       2.89948228
Si       3.70773674       6.55170419       8.42533788
Si       3.03695347       3.11916972       7.16447685
Si      -0.54452520       4.16468229       6.07837904
Si       0.83462550       6.16847558       5.74592846
Si       4.02776191       0.90614276       0.80428531
Si       6.29893790       3.86796669       4.42763554
Si       1.56038865       6.13434365       3.52209296
24
Lattice="8.764055590607878 0.47780976913859485 -0.4639647436882872 -3.8468444865649984 6.804325130098366 1.6636529191102134 -0.6406311755076383 1.7298621973584023 8.68540619361341" Properties=species:S:1:pos:R:3 unique_starting_index=90 config_type=initial n_minim_iter=2 stress="0.0012232632016786144 0.0005384837280703724 -0.00014655630196532538 0.0005384837280703724 0.0011573536825467108 0.0004741853823598806 -0.00014655630196532538 0.0004741853823598806 2.3816584031538683e-05" pbc="T T T"
Si       5.95575426       1.61132651       5.05446176
Si       1.01140260       3.13057754       0.55098965
Si       5.77264188       5.98501207       3.47361280
Si       1.82074847       0.93436761       1.72334197
Si       4.82584794       4.59245630       9.48649203
Si      -2.83022490       6.77204326       8.58619591
Si       0.84680321       2.11350641       3.63931116
Si       2.04292055       5.21144521       7.52929434
Si      -2.69617065       9.02213651       7.74697404
Si       5.33407537       3.45243496       6.74767250
Si       0.58204180       4.21008415       2.63834360
Si       3.66113934       7.02839558       3.07890878
Si       3.51082211       6.82968749       0.73030585
Si       6.98847000       5.18777781       7.61629280
Si      -1.75859355       4.54098776       2.16735565
Si      -3.93018830       9.45254057       9.89383615
Si      -1.50339462       2.02372157       2.90535807
Si       3.70920961       6.55307943       8.44329899
Si       3.03980666       3.11752399       7.18091014
Si      -0.54635525       4.16727423       6.09054008
Si       0.83258631       6.17263209       5.75677482
Si       4.03125741       0.90427458       0.80673183
Si       6.30382968       3.86670090       4.43795018
Si       1.55855827       6.13875908       3.52805989
24
Lattice="8.745422335683607 0.46161652490367927 -0.4608276649304038 -3.8507488964982324 6.79740787663892 1.6545045416412685 -0.6377768657462993 1.71489425426925 8.699772603999191" Properties=species:S:1:pos:R:3 unique_starting_index=90 config_type=initial n_minim_iter=3 stress="-0.001067381230823897 -0.0006615884375500438 0.00011290685767706821 -0.0006615884375500438 -0.00029460799518092503 -0.0003868932586026912 0.00011290685767706821 -0.0003868932586026912 0.0006039630880267343" pbc="T T T"
Si       5.94390506       1.58921990       5.06429306
Si       1.00374407       3.12268654       0.54773022
Si       5.75177990       5.95956951       3.47388073
Si       1.81617292       0.92626068       1.72674036
Si       4.81371307       4.56175235       9.50110088
Si      -2.83267267       6.75334518       8.59012902
Si       0.84353489       2.10332279       3.64345956
Si       2.03386663       5.18725476       7.53840587
Si      -2.70321240       8.99979233       7.74734943
Si       5.31989691       3.42620973       6.75820581
Si       0.57403997       4.19767311       2.63760487
Si       3.64308989       7.00450662       3.07682703
Si       3.49196828       6.81140516       0.72393489
Si       6.96923954       5.15475725       7.62762284
Si      -1.76176484       4.53311855       2.16436044
Si      -3.93436528       9.42803769       9.89700964
Si      -1.50288313       2.01765159       2.90839506
Si       3.69491470       6.52229468       8.45244122
Si       3.03262008       3.09606836       7.19263194
Si      -0.54926007       4.15244392       6.09493535
Si       0.82242959       6.15194163       5.75863029
Si       4.02115741       0.89465722       0.80915417
Si       6.28673190       3.84367923       4.44482294
Si       1.54534433       6.11919982       3.52705458
24
Lattice="8.794068560888034 0.46906125961212386 -0.4528253435663338 -3.863354523535929 6.756111830355249 1.638439273221448 -0.6309632211022168 1.690576709435866 8.693003339660075" Properties=species:S:1:pos:R:3 unique_starting_index=90 config_type=initial n_minim_iter=4 stress="0.0025134941036349303 0.0003754037269030718 0.0010038022474177374 0.0003754037269030718 -0.00281137953177502 -0.0011030558473232685 0.0010038022474177374 -0.0011030558473232685 0.0003994503637551014" pbc="T T T"
Si       5.98619327       1.57080320       5.05485434
Si       1.01107810       3.10806751       0.54175713
Si       5.79065397       5.93434674       3.46036641
Si       1.82654188       0.91531719       1.73039379
Si       4.86358530       4.53267147       9.49453153
Si      -2.83523332       6.70752814       8.55954614
Si       0.85780910       2.09242128       3.63609374
Si       2.06171997       5.14828137       7.53671325
Si      -2.70331590       8.93479310       7.72694645
Si       5.35203577       3.39836722       6.74855496
Si       0.57822135       4.16752239       2.63046776
Si       3.67997185       6.96078231       3.07117143
Si       3.52011827       6.78695513       0.72266369
Si       7.02196691       5.12416737       7.62462657
Si      -1.76102021       4.50297630       2.15803583
Si      -3.93576128       9.35165143       9.87287514
Si      -1.51030940       1.99051829       2.91476182
Si       3.73649179       6.47757428       8.44485738
Si       3.06697704       3.07415427       7.19416945
Si      -0.53833693       4.12485352       6.07426791
Si       0.83748563       6.11147251       5.74008519
Si       4.03701783       0.89695723       0.81031420
Si       6.33090135       3.84188025       4.44684806
Si       1.55441838       6.07517439       3.52232194
24
Lattice="8.762179418540416 0.46623586732433014 -0.4731289365108362 -3.85654306375745 6.797883236716956 1.6607593874352595 -0.6511712519053128 1.7190871824321559 8.687050260786682" Properties=species:S:1:pos:R:3 unique_starting_index=90 config_type=initial n_minim_iter=5 stress="-6.904070100890953e-05 9.711080031268592e-05 -0.00048051843579994055 9.711080031268592e-05 0.0003907102816694193 -0.0001235361343796538 -0.00048051843579994055 -0.0001235361343796538 0.00040952143230033874" pbc="T T T"
Si       5.95292447       1.58072595       5.02679643
Si       1.00238891       3.12647614       0.54364155
Si       5.75473313       5.97554684       3.44769031
Si       1.81310991       0.91844820       1.72897043
Si       4.82754192       4.58034321       9.48030768
Si      -2.85197056       6.76863602       8.55973716
Si       0.84748950       2.11538609       3.63157029
Si       2.03501842       5.19095131       7.53973407
Si      -2.71841257       8.99924704       7.74366073
Si       5.30719206       3.42467265       6.72802056
Si       0.56145909       4.19123724       2.63491658
Si       3.65904193       6.99671347       3.07691874
Si       3.50217209       6.83040528       0.73422985
Si       6.97554356       5.16600703       7.60969788
Si      -1.75898012       4.53098410       2.17189584
Si      -3.94964813       9.41884196       9.89008727
Si      -1.51654598       1.99905579       2.93058991
Si       3.70346689       6.52841181       8.44152761
Si       3.04183807       3.10671460       7.18918807
Si      -0.55056303       4.16451225       6.06766090
Si       0.81598603       6.15610597       5.73920345
Si       4.01265136       0.90480607       0.80096737
Si       6.29497264       3.88600697       4.43762482
Si       1.52925241       6.10840477       3.53133856
24
Lattice="8.762559902892862 0.4549045837922016 -0.4484592361741393 -3.861596964017636 6.810009269959601 1.6586269738590607 -0.630544569327345 1.7346466684340354 8.674561196816768" Properties=species:S:1:pos:R:3 unique_starting_index=90 config_type=initial n_minim_iter=6 stress="-3.5619464708850494e-05 -0.0005122922255779958 0.0011716112160542523 -0.0005122922255779958 0.0007244949996012773 0.00032434392410906444 0.0011716112160542523 0.00032434392410906444 -0.0007751543392275911" pbc="T T T"
Si       5.96805831       1.58035436       5.03033445
Si       0.99892297       3.12796832       0.54916337
Si       5.75783065       5.97981782       3.46352991
Si       1.81604454       0.91722299       1.73399617
Si       4.85280312       4.59395786       9.48617162
Si      -2.83925087       6.79059462       8.54677271
Si       0.85581804       2.12239901       3.63128727
Si       2.04906978       5.20467034       7.54366034
Si      -2.70912884       9.02270908       7.73878374
Si       5.32147031       3.42809454       6.73262088
Si       0.56103542       4.19610306       2.63858189
Si       3.65622556       6.99846886       3.09560615
Si       3.49620018       6.83438493       0.75477148
Si       6.99174769       5.17343211       7.62363233
Si      -1.75964758       4.53879724       2.16917016
Si      -3.93450864       9.44327457       9.87899069
Si      -1.51385515       2.00078020       2.93285467
Si       3.72028418       6.54311461       8.45078580
Si       3.05742104       3.11624929       7.19204770
Si      -0.53793472       4.17969338       6.06066425
Si       0.82387579       6.16756806       5.74294353
Si       4.01366605       0.90270078       0.81425892
Si       6.30243414       3.89575827       4.45605610
Si       1.52989850       6.11546465       3.53834291
24
Lattice="8.775284070300126 0.4393636787767582 -0.43999229492013747 -3.8746645472025167 6.796130676632823 1.700015531773868 -0.6281584158649104 1.783280491685838 8.687619423132185" Properties=species:S:1:pos:R:3 unique_starting_index=90 config_type=initial n_minim_iter=7 stress="-0.0005596300894347253 -0.0005304469702188784 0.00028323984320739 -0.0005304469702188784 -0.0036916338158458142 0.003331362800227404 0.00028323984320739 0.003331362800227404 -0.00016553129316924527" pbc="T T T"
Si       5.99763284       1.58436303       4.99013095
Si       0.98547320       3.11293286       0.56118783
Si       5.76156046       5.98366406       3.48015960
Si       1.81101947       0.90494374       1.75259538
Si       4.89845078       4.64123639       9.52622918
Si      -2.85006546       6.81983687       8.57106749
Si       0.86486101       2.14128446       3.64565573
Si       2.05263853       5.23564928       7.59422432
Si      -2.71158805       9.05266911       7.79805752
Si       5.32835669       3.42647538       6.72481245
Si       0.54095043       4.18435015       2.66339921
Si       3.62839807       6.95845445       3.16574679
Si       3.49076353       6.82303711       0.81212573
Si       7.00701795       5.19691651       7.65655867
Si      -1.77007503       4.52745481       2.18119476
Si      -3.93058496       9.45347631       9.93947273
Si      -1.53391899       1.96447253       3.00599577
Si       3.73394869       6.57768449       8.51655758
Si       3.05692860       3.14478154       7.22239296
Si      -0.52502872       4.21685071       6.06957258
Si       0.82381516       6.17064313       5.79446172
Si       4.01491895       0.90637159       0.84449879
Si       6.30202896       3.96147986       4.50680556
Si       1.51612928       6.10517954       3.56674018
24
Lattice="8.777455632769403 0.45894062446379796 -0.4266998032384256 -3.8627259948286303 6.818922267535024 1.6327463680913599 -0.6123525488217317 1.7296478060396339 8.611863979746328" Properties=species:S:1:pos:R:3 unique_starting_index=90 config_type=initial n_minim_iter=8 stress="-0.0010369052982506983 -0.0003486812135016191 0.0015404488427496004 -0.0003486812135016191 -0.0013902816530507523 0.00023530894790069827 0.0015404488427496004 0.00023530894790069827 -0.0039476776573929345" pbc="T T T"
Si       6.02864630       1.55517841       4.89703542
Si       0.97921104       3.12473282       0.52855656
Si       5.77625063       6.01726107       3.39495898
Si       1.80870742       0.88499622       1.74720085
Si       4.95835379       4.61926966       9.43762761
Si      -2.82952298       6.79361951       8.43912220
Si       0.88081419       2.13264953       3.60584809
Si       2.07566634       5.22291354       7.51834607
Si      -2.67893938       9.06370495       7.67302227
Si       5.34462051       3.38314261       6.62612798
Si       0.53502011       4.18343854       2.61068177
Si       3.61818462       6.95935530       3.11878479
Si       3.50025503       6.87930173       0.77264765
Si       7.03356856       5.18892537       7.56750981
Si      -1.76551587       4.52796083       2.11343593
Si      -3.88640574       9.41687243       9.79478562
Si      -1.54342986       1.90356273       3.02758831
Si       3.76490165       6.57463968       8.43227491
Si       3.06698627       3.11600533       7.15908868
Si      -0.49590878       4.21163238       5.97884934
Si       0.84607602       6.16197663       5.71885270
Si       4.01566400       0.91969594       0.85893951
Si       6.30842623       4.02122760       4.47563257
Si       1.51954612       6.11330373       3.48774726
24
Lattice="8.74447728501724 0.5012328941119375 -0.4437235084689897 -3.817957446732166 6.8128151633370475 1.6400723665532677 -0.613638347200769 1.7143082586869827 8.686094742881634" Properties=species:S:1:pos:R:3 unique_starting_index=90 config_type=initial n_minim_iter=9 stress="0.00014673122887125942 0.001752686463307009 -8.054959956611841e-05 0.001752686463307009 0.0013231101490174188 0.00010279866779512844 -8.054959956611841e-05 0.00010279866779512844 0.004689892191287567" pbc="T T T"
Si       6.02530986       1.57540965       4.87911746
Si       0.97738811       3.12663037       0.52087832
Si       5.76668453       6.05726704       3.38885155
Si       1.80417757       0.88475860       1.76545005
Si       4.97535995       4.64414705       9.51332174
Si      -2.79385293       6.78081778       8.49653804
Si       0.87784173       2.13700234       3.63711838
Si       2.08994886       5.23573144       7.58135575
Si      -2.63336304       9.06648419       7.72465170
Si       5.33020138       3.37748654       6.64444675
Si       0.54065720       4.18864842       2.62152911
Si       3.61505697       6.97213232       3.13806768
Si       3.51623308       6.91888672       0.76607025
Si       7.01849010       5.22090046       7.60365911
Si      -1.75122380       4.51421631       2.10640800
Si      -3.82735718       9.39669068       9.87513606
Si      -1.54424274       1.85198187       3.10320373
Si       3.75996511       6.59812582       8.50369975
Si       3.05820753       3.12832696       7.22042344
Si      -0.47566351       4.21166196       6.02433580
Si       0.87362484       6.17039960       5.76067592
Si       4.00888454       0.95240012       0.87407143
Si       6.28826971       4.09212788       4.51525852
Si       1.51870445       6.11890458       3.50004154
24
Lattice="8.770905399666113 0.45865410727038053 -0.4849383584491369 -3.8713994613828655 6.836831481932472 1.646534399470062 -0.6650602884024757 1.7076297131064553 8.673959762537631" Properties=species:S:1:pos:R:3 unique_starting_index=90 config_type=initial n_minim_iter=10 stress="0.002812388667286492 -0.0008709774887187634 -0.0027536798979873565 -0.0008709774887187634 0.0021581264108474214 -0.0003474542730315161 -0.0027536798979873565 -0.0003474542730315161 0.0046555456893539226" pbc="T T T"
Si       6.02619735       1.54136567       4.81052462
Si       0.95551646       3.11849097       0.50884087
Si       5.73138874       6.03283743       3.33911335
Si       1.79882726       0.87173257       1.75706231
Si       4.94001360       4.61779644       9.47498788
Si      -2.87290771       6.79305890       8.48379599
Si       0.84704108       2.13174366       3.62817131
Si       2.04093027       5.22444944       7.55848438
Si      -2.72196156       9.08271437       7.71051712
Si       5.29922974       3.32882223       6.58873107
Si       0.50590436       4.18651910       2.60698588
Si       3.56853295       6.95153269       3.10970973
Si       3.49003767       6.91333689       0.74210731
Si       6.97647658       5.18169038       7.54460133
Si      -1.79749598       4.51695759       2.09292915
Si      -3.92485093       9.41177275       9.87078322
Si      -1.57917177       1.83094225       3.13306110
Si       3.69047279       6.57841392       8.47220378
Si       3.01919312       3.11043266       7.19730158
Si      -0.52329929       4.21127610       6.01462316
Si       0.82621606       6.16749523       5.74020862
Si       4.01831381       0.94345468       0.85924496
Si       6.26184548       4.08232068       4.48335202
Si       1.46333502       6.10629578       3.47894531
24
Lattice="8.741900566082416 0.47056561875986797 -0.4687283327636003 -3.8473334733537303 6.843358155349285 1.6349532077346216 -0.6442372627264825 1.7036431172754145 8.675486806451097" Properties=species:S:1:pos:R:3 unique_starting_index=90 config_type=initial n_minim_iter=11 stress="0.0015643023985684125 -8.288204020553572e-05 -0.0015876923386496944 -8.288204020553572e-05 0.0017939206120803025 -0.000719158958135041 -0.0015876923386496944 -0.000719158958135041 0.002907549814009016" pbc="T T T"
Si       6.03165691       1.55407609       4.79161042
Si       0.95150862       3.11809502       0.50725678
Si       5.71556363       6.04655310       3.33919080
Si       1.80382013       0.87685947       1.76396450
Si       4.96510565       4.63293686       9.49337360
Si      -2.83478974       6.80031246       8.47571680
Si       0.84011146       2.13604117       3.63474736
Si       2.06276560       5.23218907       7.56549262
Si      -2.68907479       9.08963589       7.69782612
Si       5.30004310       3.31616862       6.58390826
Si       0.51303387       4.19234636       2.60207992
Si       3.56721987       6.96554254       3.10838927
Si       3.49226062       6.93373322       0.74597812
Si       6.96708042       5.19346090       7.54737127
Si      -1.79507587       4.51110102       2.07463470
Si      -3.87422102       9.42100376       9.86843190
Si      -1.56901615       1.80184388       3.15681080
Si       3.69013650       6.59119190       8.48472398
Si       3.03234805       3.12151413       7.21248867
Si      -0.50370948       4.21001226       6.02448157
Si       0.85473786       6.18216578       5.73712387
Si       4.01940567       0.96600675       0.86963108
Si       6.25054258       4.11193020       4.50347855
Si       1.45618323       6.10882688       3.48314860
24
Lattice="8.715189263321594 0.46396686849267565 -0.4442668655018956 -3.836235553095033 6.847972797053151 1.6370905770937205 -0.6201896345606314 1.719739277269188 8.676899166680018" Properties=species:S:1:pos:R:3 unique_starting_index=90 config_type=initial n_minim_iter=12 stress="-0.00029078862343831236 0.00014963072807927378 0.00017845719984159849 0.00014963072807927378 0.00018749752100410426 -0.0004773685441102193 0.00017845719984159849 -0.0004773685441102193 -0.0006258684708897315" pbc="T T T"
Si       6.03042536       1.57069158       4.80247669
Si       0.94913814       3.11443721       0.51734362
Si       5.69664123       6.03878235       3.36625908
Si       1.81212744       0.89041264       1.77088721
Si       4.97857194       4.65135094       9.52273723
Si      -2.80638528       6.82156569       8.48730214
Si       0.82684083       2.14220887       3.64486566
Si       2.07570680       5.24058984       7.57648212
Si      -2.67055292       9.09623759       7.70473469
Si       5.30419090       3.31099948       6.60055678
Si       0.51900098       4.19516908       2.60637309
Si       3.56296196       6.97769550       3.11459698
Si       3.48660168       6.92936057       0.76626703
Si       6.94942859       5.19896984       7.56907792
Si      -1.80048990       4.50833481       2.07470650
Si      -3.84105167       9.45168326       9.88288367
Si      -1.55117324       1.79818650       3.15439296
Si       3.68697884       6.60312717       8.50540575
Si       3.04786960       3.13816012       7.23131169
Si      -0.49167846       4.21032966       6.05152327
Si       0.87640541       6.19948261       5.74717704
Si       4.02501848       0.97948392       0.87672160
Si       6.24053626       4.10743745       4.52887526
Si       1.44968549       6.11150132       3.50656720
24
Lattice="8.70709156490194 0.4552138370800332 -0.4348481613327589 -3.837490866999897 6.852143615736089 1.6451348828644685 -0.6125183299296585 1.7341992192311668 8.682270901314318" Properties=species:S:1:pos:R:3 unique_starting_index=90 config_type=initial n_minim_iter=13 stress="-0.0011663886753772875 -6.915163079795601e-05 0.0010687885995723286 -6.915163079795601e-05 -0.0009856444441118366 0.0005111009259219231 0.0010687885995723286 0.0005111009259219231 -0.0019794880309868816" pbc="T T T"
Si       6.03650334       1.57444147       4.78908145
Si       0.94342985       3.11189858       0.52164041
Si       5.68656283       6.03703634       3.37263151
Si       1.81407390       0.89371331       1.78080114
Si       4.99801158       4.67135717       9.54535644
Si      -2.80456058       6.84019743       8.49456354
Si       0.81997255       2.14938254       3.65136215
Si       2.07645481       5.24896601       7.59214680
Si      -2.66846287       9.10846776       7.72089958
Si       5.30432017       3.29881961       6.59860947
Si       0.51063194       4.19141039       2.60951419
Si       3.54912561       6.97367861       3.12764788
Si       3.48249892       6.93060684       0.78540577
Si       6.93632218       5.20421778       7.58371184
Si      -1.80982932       4.50488846       2.07775771
Si      -3.83046321       9.46898834       9.90259280
Si      -1.55001615       1.78008236       3.17433683
Si       3.68743327       6.61713291       8.52824396
Si       3.05251813       3.14931169       7.24723744
Si      -0.48455265       4.21872659       6.06559941
Si       0.88435180       6.20862836       5.76232404
Si       4.02871620       0.98880284       0.88626219
Si       6.23349308       4.12490753       4.55106114
Si       1.43918325       6.11205589       3.52051756
24
Lattice="8.704453346972617 0.4431764065085051 -0.4407783035141517 -3.845975389752332 6.8484741449841815 1.6569001523437812 -0.6198343617206399 1.7400343799241593 8.702289071573109" Properties=species:S:1:pos:R:3 unique_starting_index=90 config_type=initial n_minim_iter=14 stress="-0.0013358682249928827 -2.790265547948402e-05 0.0012250712432486227 -2.790265547948402e-05 -0.0020660151278975958 0.0007070893968825438 0.0012250712432486227 0.0007070893968825438 -0.0021539678397125344" pbc="T T T"
Si       6.02481168       1.57790976       4.79889246
Si       0.94405095       3.11025692       0.52575238
Si       5.67539114       6.01462915       3.37836810
Si       1.81839398       0.90791763       1.78905827
Si       4.99352912       4.67818014       9.57314470
Si      -2.82611356       6.84703356       8.52483790
Si       0.79975631       2.14870320       3.65984542
Si       2.05628808       5.23827367       7.60441494
Si      -2.68653511       9.09498950       7.75211164
Si       5.29753987       3.27891668       6.60796465
Si       0.49902791       4.17875752       2.61031553
Si       3.53764423       6.96927926       3.11857256
Si       3.48232912       6.91473329       0.79083443
Si       6.89767585       5.19239566       7.60300054
Si      -1.82729415       4.49788594       2.09797079
Si      -3.84739711       9.47834713       9.93946832
Si      -1.54306707       1.77437147       3.16417231
Si       3.67718716       6.61285972       8.54475884
Si       3.04937484       3.14865113       7.26445541
Si      -0.49308872       4.20842285       6.10188700
Si       0.88356520       6.20799361       5.78090589
Si       4.03915524       0.99569316       0.87986767
Si       6.22580567       4.10175058       4.55882917
Si       1.43034422       6.10867749       3.53854483
24
Lattice="8.71184539374164 0.44420666846872364 -0.4587970854072238 -3.8523188161733306 6.854507285588077 1.6541656492254964 -0.6370962688654218 1.72783842797313 8.706745375624266" Properties=species:S:1:pos:R:3 unique_starting_index=90 config_type=initial n_minim_iter=15 stress="-0.0005114393679236433 -0.00010710861457985454 0.0005450281209350649 -0.00010710861457985454 -0.0009658010153728034 0.0003124865556470971 0.0005450281209350649 0.0003124865556470971 -0.0007694053197238504" pbc="T T T"
Si       6.02157182       1.57014990       4.77177700
Si       0.94166078       3.11518404       0.51519342
Si       5.67355426       6.01906312       3.34882792
Si       1.81694552       0.90892159       1.79230131
Si       4.99681922       4.67981363       9.56606178
Si      -2.85175309       6.84423035       8.52075260
Si       0.79214402       2.14633786       3.65688297
Si       2.03996481       5.23193917       7.59949107
Si      -2.70215637       9.09509789       7.75251695
Si       5.28823723       3.25690906       6.58254712
Si       0.48416251       4.17410010       2.59994399
Si       3.52663011       6.96525615       3.10164994
Si       3.48715598       6.92682292       0.77612526
Si       6.87484731       5.18730002       7.58914674
Si      -1.83790960       4.49640722       2.09740319
Si      -3.86436773       9.47229038       9.94032412
Si      -1.55073338       1.75077233       3.17349901
Si       3.66974820       6.61196216       8.53521517
Si       3.03825166       3.13979759       7.26003994
Si      -0.50002630       4.20475980       6.10287071
Si       0.87797615       6.20521820       5.77764873
Si       4.04362916       1.00335249       0.87618229
Si       6.22137876       4.11342260       4.54889328
Si       1.42153982       6.11025215       3.52515638
24
Lattice="8.722592960639371 0.44867423188328986 -0.47696215751287907 -3.8575053489721864 6.861862916770006 1.6525890709295348 -0.65451150198384 1.718560619127196 8.705892889092583" Properties=species:S:1:pos:R:3 unique_starting_index=90 config_type=initial n_minim_iter=16 stress="0.0003801226154324785 7.976624322798132e-06 -0.000385188818128325 7.976624322798132e-06 0.000514351701648833 -0.00015444583616668625 -0.000385188818128325 -0.00015444583616668625 0.0007862732006892221" pbc="T T T"
Si       6.01503498       1.56526849       4.75060941
Si       0.94073318       3.12374396       0.50349919
Si       5.67776142       6.03112406       3.32219666
Si       1.81659338       0.91218714       1.79332896
Si       4.99952239       4.68631799       9.55028874
Si      -2.87696247       6.84411424       8.51584306
Si       0.78943775       2.14466733       3.65232820
Si       2.02732055       5.23093175       7.59128017
Si      -2.71573975       9.09982346       7.75209576
Si       5.28040068       3.24393139       6.55641642
Si       0.47132886       4.17565448       2.59200007
Si       3.52320737       6.96413672       3.08565689
Si       3.49569065       6.94100959       0.75992701
Si       6.85452415       5.18830069       7.57585859
Si      -1.84391989       4.50054408       2.09888634
Si      -3.88074718       9.47118458       9.93615337
Si      -1.55632861       1.73419617       3.17021809
Si       3.66490391       6.61469823       8.51815573
Si       3.02820968       3.13340778       7.24902322
Si      -0.50740618       4.20475375       6.10130947
Si       0.87194207       6.20493510       5.77177536
Si       4.04736963       1.01042041       0.87225749
Si       6.22293361       4.12433993       4.53400579
Si       1.41749451       6.11548379       3.50907776
24
Lattice="8.742334166821058 0.4513165258526092 -0.49781537692899563 -3.869140199905086 6.880708606105914 1.6520631437150748 -0.6761860826030034 1.7133833866502852 8.698381275270087" Properties=species:S:1:pos:R:3 unique_starting_index=90 config_type=initial n_minim_iter=17 stress="0.0013734688990570515 -6.625559142983475e-05 -0.0014751225430554074 -6.625559142983475e-05 0.0018587715075117609 -0.0010576850168792131 -0.0014751225430554074 -0.0010576850168792131 0.002825355764848503" pbc="T T T"
Si       6.00425736       1.55786578       4.70504640
Si       0.93014316       3.14217045       0.47867716
Si       5.68583935       6.06286036       3.28329265
Si       1.82417274       0.92521929       1.80165378
Si       5.03316841       4.71857241       9.52507797
Si      -2.91961026       6.86108076       8.50795159
Si       0.78606688       2.14600619       3.64849875
Si       2.01996183       5.23944313       7.58403017
Si      -2.73602031       9.12248346       7.75707142
Si       5.27031709       3.20838824       6.49870064
Si       0.44156801       4.18634938       2.58332497
Si       3.51812600       6.95200557       3.06606833
Si       3.51512039       6.96861520       0.73897096
Si       6.80439968       5.19441587       7.56841446
Si      -1.85863987       4.51485484       2.09964679
Si      -3.89650697       9.48856079       9.93115867
Si      -1.55900441       1.68723344       3.15771546
Si       3.65592755       6.62859452       8.49106614
Si       3.02018475       3.12974624       7.23267007
Si      -0.51532833       4.21366092       6.11043164
Si       0.87113475       6.21140243       5.76454762
Si       4.06037854       1.03429933       0.87850081
Si       6.23399451       4.15678484       4.52031058
Si       1.40249965       6.12379215       3.48229884
24
Lattice="8.739453464925848 0.4482282455236205 -0.4522171349890719 -3.861972990696935 6.911717114595251 1.677421592078003 -0.6372550580471347 1.7837890578473865 8.662277971834824" Properties=species:S:1:pos:R:3 unique_starting_index=90 config_type=initial n_minim_iter=18 stress="-1.9616494262060455e-05 0.00033269884489067167 -5.921743211998947e-05 0.00033269884489067167 0.0011572989405973012 0.0009303808968991765 -5.921743211998947e-05 0.0009303808968991765 -0.0004593386884830674" pbc="T T T"
Si       6.00040148       1.59271247       4.72088670
Si       0.91289014       3.16138872       0.49001505
Si       5.70583370       6.11968792       3.35175273
Si       1.84535249       0.95367183       1.80899007
Si       5.09172735       4.80709399       9.52149744
Si      -2.88499387       6.94896445       8.51688906
Si       0.80129968       2.17958737       3.65563113
Si       2.07573587       5.30903671       7.59530471
Si      -2.70261771       9.20731162       7.77899590
Si       5.29073649       3.24501864       6.49587896
Si       0.44761793       4.23110238       2.61437550
Si       3.54178240       6.96746916       3.11334210
Si       3.52998162       6.98713720       0.78628908
Si       6.79901725       5.25736770       7.62115933
Si      -1.84699814       4.56489105       2.11260664
Si      -3.84470495       9.59952109       9.93798841
Si      -1.52729538       1.69602482       3.10942433
Si       3.67038262       6.70298353       8.50144607
Si       3.05522326       3.19165164       7.23143209
Si      -0.49728757       4.27131269       6.13651633
Si       0.90199007       6.26606793       5.77825019
Si       4.07308671       1.05973980       0.91121981
Si       6.26909902       4.19936378       4.55441797
Si       1.40763517       6.15742514       3.50722430
24
Lattice="8.73764147594048 0.4443614138301123 -0.4473165344905432 -3.8635713378093217 6.907889025499851 1.6673505938842814 -0.6324129732088775 1.772778476154301 8.662591622476114" Properties=species:S:1:pos:R:3 unique_starting_index=90 config_type=initial n_minim_iter=19 stress="-0.00035108176659708133 -3.128182087506438e-05 0.0004898689679951663 -3.128182087506438e-05 -0.0006270633108097644 0.00027851120487656526 0.0004898689679951663 0.00027851120487656526 -0.0008238411541643974" pbc="T T T"
Si       6.00338755       1.58169146       4.70369829
Si       0.90234772       3.15794747       0.48391921
Si       5.70516535       6.11382439       3.34671352
Si       1.84906917       0.95203719       1.81374311
Si       5.11151278       4.79631180       9.52368876
Si      -2.88356618       6.94082822       8.50851326
Si       0.79589771       2.17749645       3.65575704
Si       2.08276687       5.29451898       7.59353789
Si      -2.70056691       9.19659369       7.76902334
Si       5.29127664       3.21444096       6.48188153
Si       0.44204389       4.22212886       2.60920211
Si       3.53420621       6.94781680       3.10671326
Si       3.53188587       6.98417125       0.77976690
Si       6.78874410       5.24100487       7.62175132
Si      -1.85341815       4.56232196       2.10200838
Si      -3.83653268       9.58596447       9.93212312
Si      -1.52377333       1.66759917       3.11810007
Si       3.66706754       6.69208688       8.50261619
Si       3.05975148       3.18282250       7.23710372
Si      -0.49578462       4.26346042       6.14302828
Si       0.90994042       6.25461035       5.77264653
Si       4.08070955       1.06826784       0.91867615
Si       6.27120648       4.20532304       4.56086952
Si       1.39859405       6.14605405       3.50095631
24
Lattice="8.735895634820794 0.4451280691031849 -0.4453105734428102 -3.8633208426474734 6.916660421489327 1.648370566774126 -0.629865014792281 1.7553504834884182 8.649817360695074" Properties=species:S:1:pos:R:3 unique_starting_index=90 config_type=initial n_minim_iter=20 stress="-0.000597582255017251 -8.048972312670192e-05 0.0008906667153258403 -8.048972312670192e-05 -0.0025394094080207043 -0.0007013820220289278 0.0008906667153258403 -0.0007013820220289278 -0.0008751131775755435" pbc="T T T"
Si       5.99327163       1.56079569       4.65827278
Si       0.87211090       3.16531460       0.47011245
Si       5.72124525       6.13107084       3.34015520
Si       1.85466460       0.95293726       1.81823771
Si       5.14559464       4.78264202       9.50119792
Si      -2.88655638       6.94527953       8.48149709
Si       0.78271863       2.18681949       3.64457620
Si       2.09408307       5.27550356       7.56884724
Si      -2.69467208       9.20273243       7.73929163
Si       5.28599832       3.16035485       6.43356367
Si       0.43034447       4.21186479       2.59716600
Si       3.52100911       6.91649789       3.08384920
Si       3.54516780       7.00101470       0.75687840
Si       6.76022505       5.22727878       7.60951695
Si      -1.85961776       4.58889809       2.08524252
Si      -3.82487343       9.58330059       9.90911842
Si      -1.51018393       1.60876315       3.12064747
Si       3.65880834       6.69797402       8.48836599
Si       3.06364953       3.17662183       7.23534217
Si      -0.50373828       4.26645510       6.15606904
Si       0.92419244       6.24142377       5.74859722
Si       4.10147242       1.09442701       0.93053338
Si       6.28480163       4.23840481       4.55923713
Si       1.38502636       6.14455299       3.47914435
24
Lattice="8.740244102381242 0.44140987658066183 -0.45639067305627784 -3.871105131623887 6.9423833548828595 1.6583900899010924 -0.6433629363341197 1.7707052769181715 8.637924043016326" Properties=species:S:1:pos:R:3 unique_starting_index=90 config_type=initial n_minim_iter=21 stress="0.00026523327167887403 -5.658211331430934e-05 -0.00029809421946342264 -5.658211331430934e-05 0.00016049012197248634 -9.04367481753761e-05 -0.00029809421946342264 -9.04367481753761e-05 0.0004240602393072603" pbc="T T T"
Si       5.96995684       1.55843892       4.65641989
Si       0.86292067       3.18158879       0.47058360
Si       5.73028438       6.15847542       3.35222925
Si       1.85158994       0.95891366       1.81188244
Si       5.12589153       4.79448108       9.47803749
Si      -2.90683663       6.98087557       8.47984798
Si       0.77841775       2.20051638       3.63503259
Si       2.07811202       5.29392414       7.55210007
Si      -2.71065100       9.24318235       7.74115761
Si       5.27534515       3.17259330       6.41778652
Si       0.42447013       4.22844452       2.59942469
Si       3.52175541       6.92815578       3.07777953
Si       3.54459575       7.02176899       0.75272742
Si       6.74478607       5.24906435       7.59864285
Si      -1.85911810       4.62832376       2.09778872
Si      -3.85078008       9.62762939       9.90747283
Si      -1.50713189       1.62126990       3.09704564
Si       3.64771368       6.72838894       8.47293588
Si       3.05333932       3.18976392       7.22064128
Si      -0.52301494       4.29439008       6.16139572
Si       0.90997576       6.25691471       5.74181735
Si       4.10402891       1.09481258       0.92452755
Si       6.28818509       4.24677666       4.54503252
Si       1.38212482       6.16897754       3.47488222
