8
Lattice="5.3755836339887315 -1.3910923859108795 -0.12545728002927142 -0.30649624999053526 5.619732482591632 0.777910830357893 0.4326176626862953 3.2005743646621965 6.726015976546242" Properties=species:S:1:pos:R:3 unique_starting_index=84 config_type=initial n_minim_iter=1 energy=-1303.8209865963313 free_energy=-1303.8209865963313 pbc="T T T"
Si       3.43822493       2.23968727       1.13564093
Si       2.06348012       5.18952719       6.24282860
Si       3.33155856       0.28411569      -0.17258462
Si       2.17014649       7.14509877       7.55105414
Si       0.09586488       7.89003992       6.65234802
Si       5.40584017      -0.46082546       0.72612150
Si       5.51538895       3.07295501       4.92219545
Si      -0.01368390       4.35625945       2.45627407
8
Lattice="5.366383227369332 -1.3877752557463838 -0.12410079824104461 -0.29879547461039574 5.632973437243271 0.781579607239031 0.43869889946778495 3.211461703635425 6.740241703640622" Properties=species:S:1:pos:R:3 unique_starting_index=84 config_type=initial n_minim_iter=2 stress="0.0024366691637989616 -0.0002513024890644221 -0.00048438458270492807 -0.0002513024890644221 0.002441478359564218 0.0002172711160040597 -0.00048438458270492807 0.0002172711160040597 0.0014573973070999473" pbc="T T T"
Si       3.43669452       2.25053832       1.14047587
Si       2.06959213       5.20612157       6.25724464
Si       3.32769913       0.28946130      -0.17191886
Si       2.17858752       7.16719859       7.56963938
Si       0.10841692       7.91159607       6.66809647
Si       5.39786973      -0.45493618       0.72962404
Si       5.51384230       3.08880024       4.93543308
Si      -0.00755565       4.36785965       2.46228744
8
Lattice="5.347371198450853 -1.3810021317800263 -0.12032519440670458 -0.29061962728714863 5.6308485925307865 0.7822050226883358 0.44604907976232167 3.211767852820576 6.742138030143545" Properties=species:S:1:pos:R:3 unique_starting_index=84 config_type=initial n_minim_iter=3 stress="-0.0016751836854791374 0.00047605446451248886 -0.00018910888445175815 0.00047605446451248886 0.00021621306840633717 0.0006602899868639668 -0.00018910888445175815 0.0006602899868639668 -0.0005109494928261427" pbc="T T T"
Si       3.42915454       2.25536117       1.14396261
Si       2.07364611       5.20625315       6.26005524
Si       3.31785496       0.29437667      -0.17015029
Si       2.18494569       7.16723764       7.57416814
Si       0.12265836       7.91014458       6.67015919
Si       5.38014229      -0.44853027       0.73385867
Si       5.50395118       3.09420971       4.94155239
Si      -0.00115052       4.36740460       2.46246547
8
Lattice="5.349335506158451 -1.3783986686712648 -0.11073629830200046 -0.28869707023849134 5.623574056895849 0.7739663453860145 0.456243230075279 3.197690574576031 6.747756375071125" Properties=species:S:1:pos:R:3 unique_starting_index=84 config_type=initial n_minim_iter=4 stress="-0.0005191082731018434 0.0008840546821324802 0.00014781682048484396 0.0008840546821324802 -0.0009198376499878404 -0.0004336121789804921 0.00014781682048484396 -0.0004336121789804921 0.0011844549795597121" pbc="T T T"
Si       3.43256750       2.25522055       1.14826826
Si       2.08431416       5.18764541       6.26271816
Si       3.32032272       0.29818319      -0.16788464
Si       2.19655895       7.14468277       7.57887106
Si       0.13420518       7.89189782       6.66680934
Si       5.38267649      -0.44903186       0.74417708
Si       5.51571057       3.08200799       4.95326136
Si       0.00117109       4.36085797       2.45772507
8
Lattice="5.354541805301332 -1.3891182356556007 -0.10121226520151017 -0.29713781803061456 5.630538962572971 0.768906364023547 0.4616934107969311 3.196677119585504 6.737436904885733" Properties=species:S:1:pos:R:3 unique_starting_index=84 config_type=initial n_minim_iter=5 stress="-0.00017052132837301468 -0.0006499694083269125 0.0011553259395404086 -0.0006499694083269125 0.000602686443142904 0.00033934874649746037 0.0011553259395404086 0.00033934874649746037 -0.0006014497494825928" pbc="T T T"
Si       3.43234411       2.25805169       1.15350201
Si       2.08675329       5.18004616       6.25162899
Si       3.32313603       0.29789759      -0.16535682
Si       2.19596137       7.14020025       7.57048782
Si       0.13314599       7.89820727       6.65173791
Si       5.38595140      -0.46010943       0.75339310
Si       5.52535227       3.06959971       4.95576034
Si      -0.00625488       4.36849814       2.44937066
8
Lattice="5.355480963254346 -1.387204689793221 -0.10667666559486563 -0.29656828568479926 5.628516207885408 0.7661999144664859 0.45487041126273514 3.1921857169219257 6.735788962361684" Properties=species:S:1:pos:R:3 unique_starting_index=84 config_type=initial n_minim_iter=6 stress="0.0001701513547561845 0.00011621165213983721 -0.0006252076712003088 0.00011621165213983721 -5.1863463146297424e-05 -1.675078223791698e-05 -0.0006252076712003088 -1.675078223791698e-05 -0.00016489516422680964" pbc="T T T"
Si       3.43174954       2.26061292       1.14969898
Si       2.08203355       5.17288432       6.24561324
Si       3.32456824       0.30016043      -0.17004598
Si       2.18921485       7.13333681       7.56535819
Si       0.12889278       7.89256863       6.64731833
Si       5.38489031      -0.45907140       0.74799388
Si       5.52386315       3.06558071       4.94868826
Si      -0.01008007       4.36791652       2.44662395
8
Lattice="5.35336035709317 -1.3875082758543569 -0.09084075721162334 -0.29611673834260205 5.622804433765598 0.7591068702370434 0.47141577580863414 3.1800366469534884 6.745497113668827" Properties=species:S:1:pos:R:3 unique_starting_index=84 config_type=initial n_minim_iter=7 stress="-0.00014632333436020046 -0.0007255479197932986 5.193136528689995e-07 -0.0007255479197932986 -0.0011592151503979089 0.00031056747798622356 5.193136528689995e-07 0.00031056747798622356 0.002867635262666003" pbc="T T T"
Si       3.42924926       2.26319690       1.16063936
Si       2.09941013       5.15213590       6.25312387
Si       3.32173597       0.29734571      -0.16136047
Si       2.20692343       7.11798709       7.57512370
Si       0.14777252       7.87472086       6.64899981
Si       5.38088687      -0.45938805       0.76476342
Si       5.53951339       3.04867305       4.96751891
Si      -0.01085400       4.36665976       2.44624432
8
Lattice="5.354909460316504 -1.382663175016914 -0.07968749677725051 -0.28899470000878164 5.625833466950252 0.7482811086223877 0.48601178548643953 3.1722577130131757 6.730264866472141" Properties=species:S:1:pos:R:3 unique_starting_index=84 config_type=initial n_minim_iter=8 stress="0.00022746687873972634 0.0002985165830001569 0.0004992995116281032 0.0002985165830001569 -0.0006855533379933654 -0.00036339351528762566 0.0004992995116281032 -0.00036339351528762566 0.0011997135753801708" pbc="T T T"
Si       3.43317441       2.27028669       1.16214900
Si       2.11875214       5.14514131       6.23670948
Si       3.32350187       0.29995842      -0.15526962
Si       2.22842468       7.11546958       7.55412809
Si       0.16949751       7.86895008       6.62575789
Si       5.38242904      -0.45352207       0.77310059
Si       5.55750317       3.04583067       4.96277560
Si      -0.00557663       4.36959734       2.43608288
8
Lattice="5.356464261941724 -1.3861066052486515 -0.08274395477648776 -0.2917437300529003 5.631224310044511 0.7477115735267641 0.48086677282563667 3.175413781543498 6.721164369935943" Properties=species:S:1:pos:R:3 unique_starting_index=84 config_type=initial n_minim_iter=9 stress="-2.6600426219445238e-06 2.1867390198948675e-05 -6.0586346261777774e-05 2.1867390198948675e-05 0.00015859309917287982 -9.078684025092596e-05 -6.0586346261777774e-05 -9.078684025092596e-05 -0.00022617816373103573" pbc="T T T"
Si       3.43109388       2.27040420       1.15859227
Si       2.11449342       5.15012728       6.22753972
Si       3.32418546       0.29707268      -0.15533345
Si       2.22140184       7.12345880       7.54146544
Si       0.16324071       7.87502100       6.61776417
Si       5.38234660      -0.45448952       0.76836782
Si       5.55534465       3.04572808       4.95249759
Si      -0.00975735       4.37480341       2.43363440
8
Lattice="5.35916343762682 -1.387831833439526 -0.07914040614712087 -0.29271514116100494 5.632917686674022 0.7488420271184333 0.4852214132991493 3.178048891466058 6.720044762556196" Properties=species:S:1:pos:R:3 unique_starting_index=84 config_type=initial n_minim_iter=10 stress="6.949413026788455e-07 0.00022380822046969196 -5.101917541616896e-05 0.00022380822046969196 5.068530937308721e-05 0.0005336131234325207 -5.101917541616896e-05 0.0005336131234325207 -0.001026711721675175" pbc="T T T"
Si       3.43022269       2.27032682       1.16163981
Si       2.12144702       5.15280792       6.22810658
Si       3.32780470       0.29553321      -0.15017633
Si       2.22386501       7.12760154       7.53992272
Si       0.16780448       7.87589601       6.61844888
Si       5.38386523      -0.45276126       0.77129751
Si       5.56436523       3.04193632       4.95672396
Si      -0.01269552       4.38119843       2.43302242
8
Lattice="5.357060511588714 -1.392108453656585 -0.07774713845081166 -0.29654237602482947 5.634484199986431 0.7452734716362213 0.4832434957354618 3.1739664533942067 6.722219609878235" Properties=species:S:1:pos:R:3 unique_starting_index=84 config_type=initial n_minim_iter=11 stress="-0.00028470247291905387 -0.00014667471962601282 -0.00014855722979935758 -0.00014667471962601282 0.0002865419100628588 -0.00014072695162738966 -0.00014855722979935758 -0.00014072695162738966 -0.00030768647373076967" pbc="T T T"
Si       3.42597628       2.26650676       1.16075997
Si       2.11778535       5.14983544       6.22898597
Si       3.32712123       0.29376465      -0.14927439
Si       2.21664040       7.12257755       7.53902033
Si       0.16236478       7.87266729       6.61750543
Si       5.38139685      -0.45632509       0.77224051
Si       5.56042132       3.03403352       4.95945022
Si      -0.01665969       4.38230868       2.43029572
8
Lattice="5.358125521638066 -1.3913156125973698 -0.07796650342146672 -0.2961870324513731 5.632787391830714 0.7477612453421927 0.48401216642557066 3.175459311501811 6.726464189423308" Properties=species:S:1:pos:R:3 unique_starting_index=84 config_type=initial n_minim_iter=12 stress="0.00015558761271465272 -2.862373016878466e-05 -5.766670224859065e-05 -2.862373016878466e-05 -2.724918104575772e-05 6.579807221582446e-05 -5.766670224859065e-05 6.579807221582446e-05 0.00019638848140236348" pbc="T T T"
Si       3.42685055       2.26533807       1.16208247
Si       2.11910011       5.15159302       6.23417646
Si       3.32815447       0.29424270      -0.14909969
Si       2.21779619       7.12268839       7.54535863
Si       0.16236646       7.87279134       6.62349198
Si       5.38358420      -0.45586025       0.77276695
Si       5.56196477       3.03519310       4.96394361
Si      -0.01601411       4.38173799       2.43231533
8
Lattice="5.357465727757453 -1.3912280994978612 -0.07615106691917138 -0.29578821854445253 5.632931110980439 0.7464672480635476 0.4859400168306197 3.174148086552488 6.7263210930175745" Properties=species:S:1:pos:R:3 unique_starting_index=84 config_type=initial n_minim_iter=13 stress="6.899060605440352e-05 4.8233734585392844e-05 0.00012092754313914124 4.8233734585392844e-05 -0.0001584995721530304 -2.175858300161989e-05 0.00012092754313914124 -2.175858300161989e-05 0.00017050024126946244" pbc="T T T"
Si       3.42614480       2.26556437       1.16293088
Si       2.12147273       5.15028673       6.23370639
Si       3.32769912       0.29433000      -0.14826870
Si       2.21991841       7.12152110       7.54490597
Si       0.16405106       7.87178034       6.62213958
Si       5.38356647      -0.45592924       0.77449769
Si       5.56366472       3.03362481       4.96555127
Si      -0.01604719       4.38222629       2.43108600
8
Lattice="5.356725847466516 -1.3920491852751848 -0.07610476916038508 -0.2962855524153274 5.634202956871052 0.7457401591283629 0.4854037956332658 3.174039877757261 6.725561140668845" Properties=species:S:1:pos:R:3 unique_starting_index=84 config_type=initial n_minim_iter=14 stress="4.43663261899839e-06 5.1330903411638356e-05 0.00010536880837998724 5.1330903411638356e-05 -0.00010860092107311464 -2.4273350132217747e-05 0.00010536880837998724 -2.4273350132217747e-05 7.324643159241932e-05" pbc="T T T"
Si       3.42426232       2.26517737       1.16272762
Si       2.12158177       5.15101628       6.23246892
Si       3.32701332       0.29375268      -0.14831616
Si       2.21883077       7.12244097       7.54351270
Si       0.16196050       7.87288793       6.62087859
Si       5.38388359      -0.45669428       0.77431794
Si       5.56321537       3.03255054       4.96541181
Si      -0.01737128       4.38364311       2.42978472
8
Lattice="5.356489307163795 -1.392823009855557 -0.0768035520419899 -0.2969620167157911 5.63506890640872 0.7455709617338625 0.48410185076184603 3.174304815143358 6.72485790152401" Properties=species:S:1:pos:R:3 unique_starting_index=84 config_type=initial n_minim_iter=15 stress="-1.4462584010286325e-05 1.37969307371547e-05 2.0402704722809255e-05 1.37969307371547e-05 4.9618538607467725e-08 -1.076929620101516e-05 2.0402704722809255e-05 -1.076929620101516e-05 -1.0304587214472848e-05" pbc="T T T"
Si       3.42291656       2.26473468       1.16222709
Si       2.12071258       5.15181603       6.23139822
Si       3.32677165       0.29315482      -0.14873156
Si       2.21685749       7.12339589       7.54235687
Si       0.15937300       7.87385049       6.62024394
Si       5.38425614      -0.45729978       0.77338137
Si       5.56217116       3.03214989       4.96440743
Si      -0.01854202       4.38440082       2.42921788
