10
Lattice="7.839976145112096 0.40181773611005756 0.8180382180893772 -3.3107644429660787 4.487729102185775 0.49021397984498966 -1.513642534959854 -1.5325932300033829 5.167323069555195" Properties=species:S:1:pos:R:3 unique_starting_index=21 config_type=initial n_minim_iter=13 energy=-1627.7713712380084 free_energy=-1627.7713712380084 pbc="T T T"
Si       3.39406113       1.06105515       6.44635890
Si      -0.56936278      -0.04694362       3.64533736
Si      -0.02121240       1.78272997       2.19941682
Si       1.86541129       4.75149105       2.25752482
Si       2.18826143       1.47232539       2.98484346
Si      -0.78255791       2.87073318       5.37860622
Si       3.59409167       3.37897823       3.08939849
Si      -2.10453081       0.91271447       5.17571245
Si       1.35674747       0.54111396       5.11105174
Si      -0.03981627       3.85632109       3.35650041
