16
Lattice="13.806189254953651 4.668114789315797 6.123407267124951 5.25900697640934 11.993279372853932 2.260673783689682 5.307838919276232 4.674828602241031 5.721874308519518" Properties=species:S:1:pos:R:3 unique_starting_index=30 config_type=initial n_minim_iter=1 energy=-2731.895096970445 free_energy=-2731.895096970445 pbc="T T T"
Si      13.72209813      13.99838034       9.32245842
Si      10.65093702       7.33784242       4.78349694
Si       8.10287501       8.20830044       4.94498348
Si      16.27016014      13.12792232       9.16097188
Si      14.57517362      12.38872228       9.30934453
Si       9.79786153       8.94750048       4.79661083
Si      11.62673032       8.84128278       5.12134719
Si      12.74630483      12.49493999       8.98460817
Si       6.66602130       9.14450291       4.21867775
Si      17.70701385      12.19171986       9.88727761
Si      19.39992342      12.70274353       9.31718193
Si       4.97311173       8.63347924       4.78877343
Si       6.40992325       7.46956683       4.74915364
Si      17.96311190      13.86665594       9.35680172
Si      16.44716709      14.74760206       9.91277887
Si       7.92586806       6.58862071       4.19317649
16
Lattice="13.80574716334086 4.667887912377106 6.123584664814915 5.2586860772130395 11.993272064198528 2.2606443212691985 5.307653397665582 4.674731926633886 5.7219756450281105" Properties=species:S:1:pos:R:3 unique_starting_index=30 config_type=initial n_minim_iter=2 stress="-0.0011417811647713603 -0.0001746127605036973 0.0001238152617947474 -0.0001746127605036973 -0.0004330434097714038 -0.00011790104174789629 0.0001238152617947474 -0.00011790104174789629 -0.0003425950094980997" pbc="T T T"
Si      13.72156803      13.99820871       9.32260834
Si      10.65051861       7.33768319       4.78359629
Si       8.10254892       8.20820831       4.94504304
Si      16.26953772      13.12768360       9.16116159
Si      14.57461471      12.38853016       9.30951203
Si       9.79747193       8.94736174       4.79669260
Si      11.62627419       8.84112973       5.12140311
Si      12.74581244      12.49476217       8.98480153
Si       6.66570648       9.14439760       4.21868210
Si      17.70638016      12.19149431       9.88752253
Si      19.39921223      12.70249593       9.31735653
Si       4.97287440       8.63339597       4.78884810
Si       6.40964520       7.46949078       4.74916342
Si      17.96244144      13.86640112       9.35704121
Si      16.44654176      14.74734788       9.91293673
Si       7.92554488       6.58854402       4.19326790
16
Lattice="13.806023576058378 4.667798264126655 6.124042750666324 5.258600563867355 11.993754257517606 2.2607004570489937 5.307732631012929 4.674805349426911 5.722340232410038" Properties=species:S:1:pos:R:3 unique_starting_index=30 config_type=initial n_minim_iter=3 stress="0.0001564073637248407 -0.0002568057065907488 0.0002236296061431489 -0.0002568057065907488 1.931702815892946e-05 -0.00025889518580116415 0.0002236296061431489 -0.00025889518580116415 0.00019124017122971407" pbc="T T T"
Si      13.72174856      13.99858561       9.32317968
Si      10.65060821       7.33777226       4.78390376
Si       8.10262479       8.20844458       4.94530204
Si      16.26973198      13.12791329       9.16178140
Si      14.57478055      12.38881628       9.31009569
Si       9.79757622       8.94754159       4.79698775
Si      11.62639113       8.84130521       5.12162865
Si      12.74596564      12.49505266       8.98545479
Si       6.66570373       9.14460796       4.21882021
Si      17.70665305      12.19174991       9.88826323
Si      19.39948294      12.70274171       9.31790726
Si       4.97287383       8.63361616       4.78917618
Si       6.40966371       7.46970777       4.74931056
Si      17.96269306      13.86665010       9.35777288
Si      16.44675966      14.74760768       9.91351894
Si       7.92559711       6.58875019       4.19356450
16
Lattice="13.805911017190443 4.668244170810998 6.123934541209125 5.2587335862271 11.994110098192095 2.2608659976135126 5.307677238285564 4.675097982014057 5.722383778760414" Properties=species:S:1:pos:R:3 unique_starting_index=30 config_type=initial n_minim_iter=4 stress="-2.4083305626533934e-05 0.00014299425431961245 -7.940984314082006e-05 0.00014299425431961245 -3.8738033419998655e-05 -5.575802646958147e-05 -7.940984314082006e-05 -5.575802646958147e-05 -4.273196802148094e-05" pbc="T T T"
Si      13.72176467      13.99927162       9.32329866
Si      10.65055718       7.33818063       4.78388566
Si       8.10261785       8.20885107       4.94533819
Si      16.26970399      13.12860118       9.16184613
Si      14.57473345      12.38949859       9.31015975
Si       9.79758839       8.94795366       4.79702457
Si      11.62637358       8.84177248       5.12159860
Si      12.74594827      12.49567977       8.98558572
Si       6.66574571       9.14494302       4.21888329
Si      17.70657614      12.19250923       9.88830103
Si      19.39941457      12.70352592       9.31786466
Si       4.97290727       8.63392633       4.78931966
Si       6.40964861       7.47005780       4.74931974
Si      17.96267323      13.86739445       9.35786457
Si      16.44675222      14.74832839       9.91358232
Si       7.92556962       6.58912386       4.19360199
16
Lattice="13.805853276134965 4.6681341897602895 6.124445349377483 5.258326350678535 11.99440383654072 2.261483830645779 5.3075876356013785 4.6752912875691575 5.722781736358328" Properties=species:S:1:pos:R:3 unique_starting_index=30 config_type=initial n_minim_iter=5 stress="-3.627613984914238e-05 -0.0001707756083869108 2.9748210295031696e-06 -0.0001707756083869108 0.0001380285708207899 0.00030966121261090764 2.9748210295031696e-06 0.00030966121261090764 -8.24563056393741e-05" pbc="T T T"
Si      13.72141608      13.99958480       9.32430021
Si      10.65035118       7.33824451       4.78441071
Si       8.10236078       8.20904530       4.94586015
Si      16.26940648      13.12878402       9.16285076
Si      14.57442295      12.38978051       9.31110701
Si       9.79734431       8.94804881       4.79760391
Si      11.62614526       8.84183860       5.12222372
Si      12.74562201      12.49599071       8.98648720
Si       6.66548623       9.14515154       4.21941119
Si      17.70628103      12.19267777       9.88929972
Si      19.39910319      12.70363885       9.31886571
Si       4.97266407       8.63419046       4.78984521
Si       6.40941595       7.47025987       4.74974168
Si      17.96235131      13.86756944       9.35896923
Si      16.44638608      14.74855511       9.91461495
Si       7.92538119       6.58927420       4.19409597
16
Lattice="13.806221790348001 4.667717002360818 6.1255892240432726 5.258033060525012 11.994677523425876 2.26185815146475 5.307729155646854 4.675235115727839 5.723575282405036" Properties=species:S:1:pos:R:3 unique_starting_index=30 config_type=initial n_minim_iter=6 stress="0.00036252448497875917 -5.5949815035406985e-06 0.00016303582741750987 -5.5949815035406985e-06 -0.0004750346190424272 4.0670373619009125e-05 0.00016303582741750987 4.0670373619009125e-05 -0.0005005673347133509" pbc="T T T"
Si      13.72157432      13.99945193       9.32582093
Si      10.65040969       7.33817771       4.78520173
Si       8.10225567       8.20907165       4.94651677
Si      16.26972833      13.12855800       9.16450589
Si      14.57457281      12.38977533       9.31270761
Si       9.79741120       8.94785431       4.79831505
Si      11.62627701       8.84165953       5.12316371
Si      12.74570699      12.49597011       8.98785894
Si       6.66547840       9.14517894       4.21993919
Si      17.70650560      12.19245070       9.89108347
Si      19.39936096      12.70343876       9.32058363
Si       4.97262304       8.63419088       4.79043903
Si       6.40931190       7.47026103       4.75020559
Si      17.96267211      13.86736861       9.36081707
Si      16.44659426      14.74823794       9.91613431
Si       7.92538975       6.58939170       4.19488835
16
Lattice="13.805656722293666 4.667751434183751 6.126290123386594 5.257590902525035 11.995545882693014 2.2620339808104344 5.3074436833585334 4.675462197503369 5.724237229434425" Properties=species:S:1:pos:R:3 unique_starting_index=30 config_type=initial n_minim_iter=7 stress="-2.4820230477264426e-05 4.578126137827392e-05 4.285137529450017e-05 4.578126137827392e-05 -0.00011263226458721241 6.528493023913914e-05 4.285137529450017e-05 6.528493023913914e-05 0.00016109300999627048" pbc="T T T"
Si      13.72084551      14.00019268       9.32688145
Si      10.64984580       7.33856684       4.78567989
Si       8.10171777       8.20956206       4.94697979
Si      16.26897354      13.12919745       9.16558154
Si      14.57379056      12.39047989       9.31379634
Si       9.79690075       8.94827962       4.79876499
Si      11.62570739       8.84207630       5.12372456
Si      12.74498392      12.49668321       8.98883678
Si       6.66508021       9.14573804       4.22031447
Si      17.70561110      12.19302148       9.89224687
Si      19.39841875      12.70405974       9.32164073
Si       4.97227256       8.63469978       4.79092061
Si       6.40885812       7.47068905       4.75059581
Si      17.96183319      13.86807046       9.36196553
Si      16.44575106      14.74892006       9.91717262
Si       7.92494025       6.58983946       4.19538872
16
Lattice="13.805456191930176 4.667628596742902 6.126064130392047 5.257321396329287 11.996055066032499 2.261757209492781 5.307277499983288 4.675508494689513 5.724097847588413" Properties=species:S:1:pos:R:3 unique_starting_index=30 config_type=initial n_minim_iter=8 stress="1.71399268184037e-05 -7.166968431459614e-05 -0.00012140278836136244 -7.166968431459614e-05 7.705469516076253e-05 -5.652440111659048e-05 -0.00012140278836136244 -5.652440111659048e-05 -0.00011588331856836365" pbc="T T T"
Si      13.72046893      14.00049711       9.32649399
Si      10.64958616       7.33869505       4.78542520
Si       8.10145532       8.20976432       4.94670233
Si      16.26859977      13.12942784       9.16521686
Si      14.57339984      12.39071381       9.31343147
Si       9.79665525       8.94847834       4.79848772
Si      11.62544699       8.84221656       5.12344292
Si      12.74460810      12.49697560       8.98847626
Si       6.66483361       9.14601941       4.22006592
Si      17.70522148      12.19317275       9.89185327
Si      19.39800744      12.70421390       9.32123281
Si       4.97204765       8.63497826       4.79068637
Si       6.40860749       7.47087804       4.75034411
Si      17.96144759      13.86831411       9.36157507
Si      16.44532772      14.74918566       9.91671734
Si       7.92472736       6.59000650       4.19520185
16
Lattice="13.805506509261606 4.667786312830635 6.126683138090825 5.257316897728659 11.996616299672793 2.2619201469240267 5.307392032310672 4.675687186057914 5.724445831858674" Properties=species:S:1:pos:R:3 unique_starting_index=30 config_type=initial n_minim_iter=9 stress="-3.865867091389207e-05 0.00011499400067476431 0.00015318876137845433 0.00011499400067476431 0.00019700010062549713 9.172240418704155e-06 0.00015318876137845433 9.172240418704155e-06 -0.0001072078383416895" pbc="T T T"
Si      13.72066286      14.00104473       9.32717970
Si      10.64955257       7.33904507       4.78586942
Si       8.10148131       8.21012280       4.94699989
Si      16.26873413      13.12996699       9.16604923
Si      14.57350364      12.39122989       9.31413821
Si       9.79671180       8.94885991       4.79891090
Si      11.62548312       8.84253295       5.12393128
Si      12.74473232      12.49755685       8.98911784
Si       6.66487036       9.14640298       4.22037199
Si      17.70534508      12.19368682       9.89267713
Si      19.39806408      12.70471681       9.32211184
Si       4.97215136       8.63537299       4.79093728
Si       6.40860093       7.47119988       4.75059518
Si      17.96161451      13.86888992       9.36245393
Si      16.44547804      14.74974593       9.91747165
Si       7.92473740       6.59034387       4.19557746
16
Lattice="13.805374632440854 4.667383253440759 6.126881821549156 5.257006179444866 11.99645528817901 2.261914115815299 5.30724749928153 4.6755042535016935 5.7246747938979246" Properties=species:S:1:pos:R:3 unique_starting_index=30 config_type=initial n_minim_iter=10 stress="1.7330135663832177e-05 -1.4047662388407943e-05 -5.152434803863232e-05 -1.4047662388407943e-05 -8.136012912672156e-05 2.8689943535661307e-05 -5.152434803863232e-05 2.8689943535661307e-05 3.989737897069282e-05" pbc="T T T"
Si      13.72033744      14.00056444       9.32748160
Si      10.64929088       7.33877836       4.78598913
Si       8.10122628       8.20988121       4.94707452
Si      16.26840203      13.12946159       9.16639621
Si      14.57315477      12.39077973       9.31442642
Si       9.79647354       8.94856307       4.79904431
Si      11.62525083       8.84213086       5.12406340
Si      12.74437748      12.49721194       8.98940734
Si       6.66462565       9.14616841       4.22048931
Si      17.70500267      12.19317438       9.89298142
Si      19.39771626      12.70411833       9.32239060
Si       4.97191205       8.63522447       4.79108013
Si       6.40832839       7.47100387       4.75068561
Si      17.96129992      13.86833892       9.36278512
Si      16.44509953      14.74918846       9.91775923
Si       7.92452878       6.59015434       4.19571150
16
Lattice="13.805374919668635 4.667228994644995 6.127180672812073 5.256858214010824 11.996755786590999 2.2618270931239266 5.307273444684163 4.675480069440598 5.7247964691831745" Properties=species:S:1:pos:R:3 unique_starting_index=30 config_type=initial n_minim_iter=11 stress="3.221078684728058e-06 1.450694400390986e-05 -2.212688566842736e-06 1.450694400390986e-05 4.736977293468859e-06 1.0629760472542842e-05 -2.212688566842736e-06 1.0629760472542842e-05 -7.2675093705008796e-06" pbc="T T T"
Si      13.72032899      14.00064447       9.32766945
Si      10.64917758       7.33882038       4.78613479
Si       8.10115547       8.20996910       4.94710751
Si      16.26835111      13.12949575       9.16669673
Si      14.57312298      12.39082716       9.31463577
Si       9.79638360       8.94863769       4.79916847
Si      11.62519703       8.84212985       5.12422437
Si      12.74430955      12.49733500       8.98957986
Si       6.66460456       9.14629535       4.22052925
Si      17.70490202      12.19316950       9.89327498
Si      19.39767635      12.70407259       9.32270088
Si       4.97183023       8.63539226       4.79110335
Si       6.40824595       7.47110169       4.75070094
Si      17.96126063      13.86836316       9.36310330
Si      16.44505918      14.74923974       9.91798226
Si       7.92444740       6.59022511       4.19582198
16
Lattice="13.805322059889841 4.666181810141528 6.127969120042253 5.256129847487135 11.99713660526484 2.261373671792177 5.307256507405251 4.67504850521023 5.725055123763208" Properties=species:S:1:pos:R:3 unique_starting_index=30 config_type=initial n_minim_iter=12 stress="1.6593243675547432e-06 -3.4590464915960135e-06 -1.4392718155474625e-05 -3.4590464915960135e-06 2.2241132174199607e-05 -3.5345498218008307e-06 -1.4392718155474625e-05 -3.5345498218008307e-06 -2.3276393637015827e-06" pbc="T T T"
Si      13.72006909      14.00002035       9.32797670
Si      10.64863933       7.33834657       4.78642121
Si       8.10073531       8.20970659       4.94713061
Si      16.26797310      13.12866033       9.16726731
Si      14.57273515      12.39008540       9.31499199
Si       9.79597326       8.94828152       4.79940592
Si      11.62471312       8.84159416       5.12459885
Si      12.74399529      12.49677276       8.98979906
Si       6.66436862       9.14617960       4.22050747
Si      17.70433979      12.19218732       9.89389044
Si      19.39723253      12.70297553       9.32343504
Si       4.97147588       8.63539139       4.79096288
Si       6.40782474       7.47105598       4.75062309
Si      17.96088367      13.86731094       9.36377482
Si      16.44467560      14.74841655       9.91843006
Si       7.92403282       6.58995037       4.19596786
16
Lattice="13.805375438469941 4.665295281361498 6.128831007176385 5.255606493312963 11.997210726867856 2.2611248389665755 5.3073367921222285 4.674633368459234 5.725365415825199" Properties=species:S:1:pos:R:3 unique_starting_index=30 config_type=initial n_minim_iter=13 stress="-2.325354245343041e-06 1.1331999465899393e-05 -9.707386117466859e-06 1.1331999465899393e-05 6.012702246337012e-07 2.054758688924671e-06 -9.707386117466859e-06 2.054758688924671e-06 2.8439830882909824e-05" pbc="T T T"
Si      13.72011030      13.99927260       9.32851161
Si      10.64820843       7.33786678       4.78680966
Si       8.10050401       8.20937251       4.94735244
Si      16.26781471      13.12776687       9.16796883
Si      14.57256440      12.38929871       9.31556881
Si       9.79575432       8.94784066       4.79975245
Si      11.62447402       8.84106650       5.12513320
Si      12.74384470      12.49607287       8.99018807
Si       6.66418224       9.14592174       4.22061027
Si      17.70413648      12.19121763       9.89471099
Si      19.39710766      12.70190605       9.32436913
Si       4.97121107       8.63523332       4.79095213
Si       6.40755091       7.47088764       4.75069078
Si      17.96076781      13.86625173       9.36463048
Si      16.44458009      14.74751387       9.91913104
Si       7.92373864       6.58962551       4.19619022
16
Lattice="13.805446794836403 4.664319687321931 6.129595000342836 5.2550149646247215 11.997241699687475 2.260867466476278 5.30741883435097 4.674190243207239 5.725549195052414" Properties=species:S:1:pos:R:3 unique_starting_index=30 config_type=initial n_minim_iter=14 stress="1.974809101238362e-06 4.845619816111329e-06 -1.116541926268918e-06 4.845619816111329e-06 -1.765222730524825e-06 9.89444220270422e-06 -1.116541926268918e-06 9.89444220270422e-06 1.8089166779426992e-05" pbc="T T T"
Si      13.72007254      13.99839666       9.32891371
Si      10.64780805       7.33735497       4.78709795
Si       8.10017896       8.20900663       4.94749488
Si      16.26770163      13.12674500       9.16851678
Si      14.57230941      12.38838980       9.31598206
Si       9.79557119       8.94736183       4.80002960
Si      11.62417886       8.84045376       5.12554491
Si      12.74370174      12.49529787       8.99046675
Si       6.66397069       9.14563879       4.22063166
Si      17.70390990      12.19011284       9.89538000
Si      19.39697230      12.70070262       9.32509759
Si       4.97090829       8.63504901       4.79091407
Si       6.40725300       7.47061096       4.75072989
Si      17.96062759      13.86514067       9.36528177
Si      16.44448730      14.74650831       9.91969920
Si       7.92339330       6.58924332       4.19631246
16
Lattice="13.805479171255275 4.662521305226444 6.130810702228385 5.253898527583863 11.997344764559925 2.260260401959396 5.307512976039945 4.673366417064716 5.725756071896368" Properties=species:S:1:pos:R:3 unique_starting_index=30 config_type=initial n_minim_iter=15 stress="-7.805301545253752e-06 1.2824669437067554e-05 -6.7695630021711e-06 1.2824669437067554e-05 4.210679099761972e-05 -1.1297851404425669e-05 -6.7695630021711e-06 -1.1297851404425669e-05 9.62470151066671e-06" pbc="T T T"
Si      13.71983582      13.99682077       9.32937674
Si      10.64705486       7.33641172       4.78745044
Si       8.09953745       8.20840381       4.94764057
Si      16.26735323      13.12482867       9.16918660
Si      14.57188933      12.38674521       9.31646011
Si       9.79500135       8.94648728       4.80036706
Si      11.62359343       8.83934169       5.12607733
Si      12.74329724      12.49389079       8.99074984
Si       6.66350821       9.14514965       4.22052519
Si      17.70338246      12.18808283       9.89630198
Si      19.39650003      12.69853640       9.32613595
Si       4.97039065       8.63469609       4.79069123
Si       6.40654427       7.47008061       4.75069849
Si      17.96034640      13.86315188       9.36612868
Si      16.44424858      14.74470857       9.92044868
Si       7.92264210       6.58852392       4.19637850
16
Lattice="13.805564116437658 4.660445968458237 6.1321965322733645 5.252671997379491 11.996898921053814 2.259885528983834 5.307603713901355 4.672366766651604 5.726097763325955" Properties=species:S:1:pos:R:3 unique_starting_index=30 config_type=initial n_minim_iter=16 stress="3.1748817559390037e-06 5.900480756332815e-06 7.0080355409349374e-06 5.900480756332815e-06 3.091272936380933e-05 -2.3340888390506003e-05 7.0080355409349374e-06 -2.3340888390506003e-05 1.2746794557073523e-05" pbc="T T T"
Si      13.71946683      13.99472101       9.33008817
Si      10.64637299       7.33499065       4.78809165
Si       8.09876183       8.20734442       4.94801528
Si      16.26707799      13.12236724       9.17016455
Si      14.57141336      12.38451459       9.31723414
Si       9.79442647       8.94519707       4.80094568
Si      11.62304592       8.83781145       5.12679229
Si      12.74279391      12.49190021       8.99138754
Si       6.66297742       9.14424592       4.22066670
Si      17.70286241      12.18546574       9.89751313
Si      19.39608099      12.69570294       9.32756118
Si       4.96975884       8.63400872       4.79061865
Si       6.40575439       7.46924219       4.75080688
Si      17.96008544      13.86046947       9.36737294
Si      16.44403228      14.74218485       9.92157035
Si       7.92180755       6.58752680       4.19660947
16
Lattice="13.805517550376399 4.65703195812075 6.134487340794662 5.250531302539586 11.995889335653356 2.259600785291136 5.307621877620342 4.6707533033286746 5.726780667495783" Properties=species:S:1:pos:R:3 unique_starting_index=30 config_type=initial n_minim_iter=17 stress="-7.232033495936842e-06 -6.838866203739051e-06 -1.1111663648712776e-05 -6.838866203739051e-06 1.3170109189519753e-05 -2.2419158737472894e-05 -1.1111663648712776e-05 -2.2419158737472894e-05 -2.5707809478538126e-06" pbc="T T T"
Si      13.71859499      13.99117356       9.33154737
Si      10.64507574       7.33250104       4.78932142
Si       8.09745340       8.20544033       4.94875305
Si      16.26621733      13.11823427       9.17211574
Si      14.57034329      12.38086407       9.31891272
Si       9.79332744       8.94281053       4.80195607
Si      11.62184374       8.83520754       5.12813685
Si      12.74182699      12.48846706       8.99273194
Si       6.66197247       9.14270182       4.22120737
Si      17.70169826      12.18097278       9.89966142
Si      19.39512055      12.69084442       9.33005877
Si       4.96855018       8.63283018       4.79081002
Si       6.40423916       7.46772327       4.75120368
Si      17.95943157      13.85595133       9.36966511
Si      16.44344737      14.73783352       9.92372966
Si       7.92022336       6.58584107       4.19713913
16
Lattice="13.805973283780176 4.653367282108589 6.139156695486252 5.248084499646911 11.99416968019884 2.2613660904646737 5.3080151641278706 4.669251714921217 5.728999119806963" Properties=species:S:1:pos:R:3 unique_starting_index=30 config_type=initial n_minim_iter=18 stress="2.244783573837066e-05 8.489106623016791e-06 -8.649579316098122e-06 8.489106623016791e-06 -7.148157127817208e-06 -2.2852585886880692e-05 -8.649579316098122e-06 -2.2852585886880692e-05 5.890175719232055e-06" pbc="T T T"
Si      13.71834971      13.98735593       9.33674172
Si      10.64372324       7.32943274       4.79278019
Si       8.09626398       8.20312488       4.95151550
Si      16.26580897      13.11366380       9.17800641
Si      14.56976249      12.37664309       9.32430002
Si       9.79231045       8.94014559       4.80522188
Si      11.62071968       8.83194899       5.13199211
Si      12.74135326      12.48483968       8.99752980
Si       6.66114022       9.14060593       4.22373611
Si      17.70093273      12.17618275       9.90578580
Si      19.39477168      12.68553338       9.33687915
Si       4.96730127       8.63125530       4.79264276
Si       6.40281667       7.46585177       4.75368203
Si      17.95925627      13.85093691       9.37583988
Si      16.44362589      14.73295520       9.92997351
Si       7.91844706       6.58383348       4.19954840
16
Lattice="13.806665499329524 4.6467862345532716 6.149152131664719 5.243012142695705 11.99158812007357 2.266165605307662 5.308736711195631 4.667035593567156 5.733977528220343" Properties=species:S:1:pos:R:3 unique_starting_index=30 config_type=initial n_minim_iter=19 stress="9.174671434547546e-05 5.459200790811374e-05 -2.361974068472504e-06 5.459200790811374e-05 5.642206648046293e-05 -1.1303004182958343e-05 -2.361974068472504e-06 -1.1303004182958343e-05 1.9953372900550076e-05" pbc="T T T"
Si      13.71773855      13.98114822       9.34860268
Si      10.64067581       7.32426172       4.80069258
Si       8.09360119       8.19911568       4.95819786
Si      16.26481316      13.10629427       9.19109741
Si      14.56830047      12.37003840       9.33656269
Si       9.79011388       8.93537155       4.81273257
Si      11.61830201       8.82606729       5.14050088
Si      12.74011234      12.47934266       9.00879438
Si       6.65930641       9.13752828       4.22968382
Si      17.69910795      12.16788167       9.91961145
Si      19.39364316      12.67636851       9.35204064
Si       4.96477119       8.62904144       4.79725463
Si       6.39989826       7.46306868       4.75938435
Si      17.95851610      13.84234127       9.38991092
Si      16.44359965      14.72539980       9.94402844
Si       7.91481470       6.58001015       4.20526683
16
Lattice="13.80669198853615 4.642555196401887 6.154128051175022 5.239794140607209 11.98951210433944 2.2685766225871093 5.3088585195006806 4.665451271977429 5.736353149207178" Properties=species:S:1:pos:R:3 unique_starting_index=30 config_type=initial n_minim_iter=20 stress="0.00012493954346126331 4.035931971842795e-05 -1.417021436125435e-05 4.035931971842795e-05 8.262349113781321e-05 4.962993132512424e-06 -1.417021436125435e-05 4.962993132512424e-06 2.5055643520057967e-05" pbc="T T T"
Si      13.71668744      13.97678215       9.35442579
Si      10.63865720       7.32073642       4.80463203
Si       8.09182598       8.19632929       4.96148068
Si      16.26351867      13.10118928       9.19757714
Si      14.56677340      12.36538971       9.34248975
Si       9.78857125       8.93212886       4.81656807
Si      11.61656844       8.82216908       5.14480216
Si      12.73877621      12.47534950       9.01425566
Si       6.65796649       9.13530503       4.23252887
Si      17.69737816      12.16221354       9.92652896
Si      19.39236077      12.67026426       9.35954954
Si       4.96298388       8.62725431       4.79950828
Si       6.39776002       7.46096862       4.76216772
Si      17.95758463      13.83654995       9.39689011
Si      16.44266657      14.72018179       9.95091607
Si       7.91267808       6.57733678       4.20814175
16
Lattice="13.806950497505058 4.605322243011618 6.192714941248243 5.213346478414396 11.96822554988557 2.2859780731133177 5.309908109347463 4.650042012139483 5.753589491091576" Properties=species:S:1:pos:R:3 unique_starting_index=30 config_type=initial n_minim_iter=21 stress="0.0007323647620850767 6.150384333467112e-05 -2.2229023667307636e-05 6.150384333467112e-05 0.000183116198997988 2.6604659661001216e-05 -2.2229023667307636e-05 2.6604659661001216e-05 -1.9287812901733334e-07" pbc="T T T"
Si      13.70879011      13.93542172       9.39772588
Si      10.62141498       7.28816809       4.83455663
Si       8.07642890       8.16997193       4.98563251
Si      16.25377619      13.05361787       9.24665000
Si      14.55476671      12.32184996       9.38663821
Si       9.77543838       8.90173984       4.84564429
Si      11.60271947       8.78722093       5.17796529
Si      12.72748561      12.43636888       9.05431722
Si       6.64683424       9.11343854       4.25371211
Si      17.68337084      12.11015127       9.97857039
Si      19.38110723      12.61415802       9.41610477
Si       4.94909786       8.60943178       4.81617773
Si       6.38092072       7.43983636       4.78254241
Si      17.94928436      13.78375345       9.44974010
Si      16.43484773      14.67101291      10.00195514
Si       7.89535735       6.55257689       4.23032737
