14
Lattice="7.19805 -4.812063938151921e-17 1.3300664952100118e-30 3.599025 6.233694157710577 -8.211467296770984e-31 3.599025000000001 2.077898052570193 5.98514671631402" Properties=species:S:1:pos:R:3 unique_starting_index=33 config_type=initial n_minim_iter=1 pbc="T T T"
Si       6.33824509       6.16598668       0.72216182
Si       9.36882892       3.89531434       0.72216182
Si       5.88707708       2.40608792       0.72216182
Si       8.07375396       3.37817226       4.87724339
Si       6.08675638       3.78622677       4.87724339
Si       7.43364074       5.30298990       4.87724339
Si       5.83725469       4.57423636       1.63542159
Si       8.24082791       5.12505991       1.63542159
Si       7.51606849       2.76809266       1.63542159
Si       8.24548504       1.57232551       2.40878394
Si       4.43698168       4.54042667       2.40878394
Si       8.91168436       6.35463675       2.40878394
Si       7.19805036       4.15579631       2.95060910
Si       7.19805036       4.15579631       5.96740435
14
Lattice="7.23291138018809 -1.478482255197834e-16 7.813709617533685e-19 3.616455690094045 6.263884998564452 2.7697954048720145e-18 3.616455690094046 2.0879616661881513 6.011532150990317" Properties=species:S:1:pos:R:3 unique_starting_index=33 config_type=initial n_minim_iter=2 pbc="T T T"
Si       6.36907036       6.19577075       0.72557571
Si       9.41407143       3.91410852       0.72557571
Si       5.91559344       2.41789135       0.72557571
Si       8.11334763       3.39400179       4.89764173
Si       6.11552970       3.80440457       4.89764173
Si       7.46985790       5.32936426       4.89764173
Si       5.86616242       4.59630944       1.64226497
Si       8.28035127       5.14937022       1.64226497
Si       7.55222153       2.78209096       1.64226497
Si       8.28581036       1.57935564       2.41977810
Si       4.45776867       4.56237054       2.41977810
Si       8.95515620       6.38604443       2.41977810
Si       7.23291174       4.17592354       2.96447359
Si       7.23291174       4.17592354       5.99544667
14
Lattice="8.01262769856153 -9.144837934430816e-16 -8.22284665148378e-17 4.006313849280766 6.939139138021125 1.289766997584648e-16 4.006313849280766 2.313046379340376 6.59548357898987" Properties=species:S:1:pos:R:3 unique_starting_index=33 config_type=initial n_minim_iter=3 pbc="T T T"
Si       7.05862682       6.86186647       0.80156340
Si      10.42586538       4.33439559       0.80156340
Si       6.55339211       2.68201690       0.80156340
Si       9.00003279       3.74687338       5.34805603
Si       6.75749925       4.21058525       5.34805603
Si       8.28035227       5.92082033       5.34805603
Si       6.51297603       5.09019375       1.79276013
Si       9.16437719       5.69277940       1.79276013
Si       8.36053109       3.09530581       1.79276013
Si       9.18822784       1.73584937       2.66351377
Si       4.92180384       5.05311556       2.66351377
Si       9.92785263       7.08931403       2.66351377
Si       8.01262810       4.62609299       3.27254473
Si       8.01262810       4.62609299       6.61826663
14
Lattice="8.545675462994922 -4.467707835887742e-16 -6.465902451944962e-16 4.272837731497461 7.400772043450945 -5.109282428982858e-16 4.27283773149746 2.4669240144836495 7.044749142057127" Properties=species:S:1:pos:R:3 unique_starting_index=33 config_type=initial n_minim_iter=4 pbc="T T T"
Si       7.53423177       7.32071053       0.86378137
Si      11.11848131       4.61635345       0.86378137
Si       6.98431460       2.86448084       0.86378137
Si       9.61281197       3.98407525       5.69252685
Si       7.18958029       4.48456783       5.69252685
Si       8.83463542       6.33290174       5.69252685
Si       6.96906568       5.42288201       1.90380558
Si       9.75749664       6.05471590       1.90380558
Si       8.91046536       3.32394691       1.90380558
Si       9.81073013       1.82706479       2.85192221
Si       5.22259536       5.39167091       2.85192221
Si      10.60370219       7.58280912       2.85192221
Si       8.54567589       4.93384827       3.50334412
Si       8.54567589       4.93384827       7.11010288
14
Lattice="8.370182443301095 -1.2883886069584206e-15 -8.9732108668511e-18 4.1850912216505485 7.248790630209248 -5.411185948272509e-16 4.1850912216505485 2.4162635434030832 6.929285036342078" Properties=species:S:1:pos:R:3 unique_starting_index=33 config_type=initial n_minim_iter=5 pbc="T T T"
Si       7.38399491       7.16967981       0.85230170
Si      10.88731027       4.51801491       0.85230170
Si       6.83924342       2.80988726       0.85230170
Si       9.41759321       3.90045180       5.59198539
Si       7.03927661       4.39148112       5.59198539
Si       8.65367877       6.20564905       5.59198539
Si       6.83627882       5.30761224       1.86953634
Si       9.54857049       5.92338474       1.86953634
Si       8.72569928       3.26658500       1.86953634
Si       9.61262505       1.77961978       2.80841827
Si       5.10506628       5.28299461       2.80841827
Si      10.39285726       7.43496759       2.80841827
Si       8.37018286       4.83252733       3.44651225
Si       8.37018286       4.83252733       7.00614627
14
Lattice="8.258746153508937 -1.5913606857178174e-15 8.044357646502505e-18 4.1293730767544705 7.152283972345754 -4.519188713831794e-16 4.129373076754469 2.384094657448585 6.845775943654643" Properties=species:S:1:pos:R:3 unique_starting_index=33 config_type=initial n_minim_iter=6 pbc="T T T"
Si       7.29314011       7.07473065       0.84678502
Si      10.73907299       4.45115872       0.84678502
Si       6.74402661       2.77867928       0.84678502
Si       9.29765644       3.84373542       5.51258258
Si       6.93869087       4.33069428       5.51258258
Si       8.53989240       6.13013895       5.51258258
Si       6.75937486       5.23004531       1.84206068
Si       9.40841125       5.83575566       1.84206068
Si       8.60845360       3.23876768       1.84206068
Si       9.48943094       1.73997196       2.77888897
Si       5.02089102       5.21649442       2.77888897
Si      10.26591775       7.34810228       2.77888897
Si       8.25874657       4.76818955       3.40865456
Si       8.25874657       4.76818955       6.94168286
14
Lattice="8.26547011348418 3.4370421506497665e-15 -1.5244412091639757e-16 4.132735056742088 7.158107092498347 -4.955323764511646e-16 4.132735056742088 2.386035697499451 6.877831309559463" Properties=species:S:1:pos:R:3 unique_starting_index=33 config_type=initial n_minim_iter=7 pbc="T T T"
Si       7.30708314       7.08243187       0.85636309
Si      10.74549489       4.44687933       0.85636309
Si       6.74383356       2.78690368       0.85636309
Si       9.31253038       3.84022467       5.52564423
Si       6.93493747       4.33121468       5.52564423
Si       8.54894374       6.14477554       5.52564423
Si       6.77567752       5.22663718       1.84559833
Si       9.40403235       5.83498745       1.84559833
Si       8.61670172       3.25459026       1.84559833
Si       9.50135563       1.72570123       2.79495458
Si       5.00929382       5.22494894       2.79495458
Si      10.28576213       7.36556472       2.79495458
Si       8.26547053       4.77207163       3.43190932
Si       8.26547053       4.77207163       6.99441075
14
Lattice="8.205103284415566 1.499946172026891e-15 -8.170497767504217e-16 4.102551642207782 7.105827884979009 -1.312198050360747e-15 4.10255164220778 2.3686092949930053 6.875416744296784" Properties=species:S:1:pos:R:3 unique_starting_index=33 config_type=initial n_minim_iter=8 pbc="T T T"
Si       7.27430768       7.03647456       0.86822193
Si      10.66171558       4.39368395       0.86822193
Si       6.67928782       2.78149796       0.86822193
Si       9.26296896       3.79424754       5.49122290
Si       6.85953398       4.29256627       5.49122290
Si       8.49280815       6.12484266       5.49122290
Si       6.74706254       5.16825477       1.83293281
Si       9.30741236       5.78440153       1.83293281
Si       8.56083620       3.25900017       1.83293281
Si       9.44031299       1.67628745       2.80160241
Si       4.93665472       5.19796188       2.80160241
Si      10.23834337       7.33740714       2.80160241
Si       8.20510370       4.73721882       3.45199532
Si       8.20510370       4.73721882       7.04479606
14
Lattice="8.230599436639142 7.39156263849077e-16 -8.42109862931752e-16 4.11529971831957 7.127908200503381 -9.29992552005726e-16 4.115299718319569 2.3759694001677953 6.998121143036702" Properties=species:S:1:pos:R:3 unique_starting_index=33 config_type=initial n_minim_iter=9 pbc="T T T"
Si       7.32605856       7.07207071       0.89728277
Si      10.69216347       4.37522893       0.89728277
Si       6.67357752       2.80851746       0.89728277
Si       9.32065068       3.77558279       5.54349164
Si       6.84002512       4.29610545       5.54349164
Si       8.53112375       6.18412887       5.54349164
Si       6.77306657       5.15511301       1.85056128
Si       9.30852539       5.81261289       1.85056128
Si       8.61020758       3.28809120       1.85056128
Si       9.47534201       1.63903805       2.85839754
Si       4.91237744       5.23041120       2.85839754
Si      10.30408010       7.38636785       2.85839754
Si       8.23059985       4.75193903       3.55663767
Si       8.23059985       4.75193903       7.24885175
14
Lattice="8.053408583659905 1.180488868532912e-15 -1.0724955907524498e-15 4.026704291829952 6.9744564205051285 -1.0557867605853641e-15 4.026704291829951 2.324818806835044 6.837371376103088" Properties=species:S:1:pos:R:3 unique_starting_index=33 config_type=initial n_minim_iter=10 pbc="T T T"
Si       7.17474288       6.92342196       0.87807573
Si      10.46189685       4.27369296       0.87807573
Si       6.52358724       2.75179861       0.87807573
Si       9.12341730       3.68931919       5.40751619
Si       6.68674449       4.20314279       5.40751619
Si       8.35006518       6.05645154       5.40751619
Si       6.62646543       5.03758145       1.80585709
Si       9.10284979       5.69143542       1.80585709
Si       8.43091175       3.21989667       1.80585709
Si       9.27172431       1.59530211       2.79450524
Si       4.79911899       5.12171370       2.79450524
Si      10.08938367       7.23189773       2.79450524
Si       8.05340899       4.64963784       3.48256622
Si       8.05340899       4.64963784       7.09771143
14
Lattice="8.094759378742186 -1.33688642666238e-15 -1.3760478421033516e-15 4.047379689371095 7.010267259513068 -1.2068170997175118e-15 4.047379689371092 2.336755753171023 6.895726846958735" Properties=species:S:1:pos:R:3 unique_starting_index=33 config_type=initial n_minim_iter=11 pbc="T T T"
Si       7.21528438       6.96208043       0.88711353
Si      10.51645611       4.29087543       0.88711353
Si       6.55253886       2.76757935       0.88711353
Si       9.17477094       3.70330250       5.44769776
Si       6.71452836       4.22329926       5.44769776
Si       8.39498005       6.09393345       5.44769776
Si       6.65862775       5.05953617       1.81932090
Si       9.14713277       5.72422635       1.81932090
Si       8.47851884       3.23677269       1.81932090
Si       9.32000278       1.59780683       2.81913335
Si       4.81849970       5.15027263       2.81913335
Si      10.14577687       7.27245575       2.81913335
Si       8.09475979       4.67351174       3.51827545
Si       8.09475979       4.67351174       7.16909639
14
Lattice="8.07684473917047 1.914827885274542e-15 -1.5148502735765858e-15 4.038422369585234 6.994752726544319 -1.2003956719277843e-15 4.038422369585233 2.3315842421814414 6.88768307674525" Properties=species:S:1:pos:R:3 unique_starting_index=33 config_type=initial n_minim_iter=12 pbc="T T T"
Si       7.20267120       6.94950547       0.88709083
Si      10.49395783       4.27705717       0.88709083
Si       6.53390640       2.76294349       0.88709083
Si       9.15781674       3.69110816       5.43616001
Si       6.69453022       4.21305013       5.43616001
Si       8.37818848       6.08534785       5.43616001
Si       6.64250239       5.04464987       1.81555804
Si       9.12438889       5.71460540       1.81555804
Si       8.46364415       3.23025088       1.81555804
Si       9.29987933       1.58890388       2.81686137
Si       4.80293661       5.14112246       2.81686137
Si      10.12771950       7.25947981       2.81686137
Si       8.07684515       4.66316871       3.51901342
Si       8.07684515       4.66316871       7.17027717
14
Lattice="8.012932947648093 1.3641605232100123e-15 -1.4820734474045565e-15 4.006466473824046 6.9394034914845655 -1.457137013818571e-15 4.0064664738240445 2.3131344971615238 6.877700042069433" Properties=species:S:1:pos:R:3 unique_starting_index=33 config_type=initial n_minim_iter=13 pbc="T T T"
Si       7.16078623       6.90814416       0.89054390
Si      10.41516857       4.22331281       0.89054390
Si       6.46284525       2.74735070       0.89054390
Si       9.10088649       3.64334039       5.40464599
Si       6.61771544       4.17553858       5.40464599
Si       8.32019812       6.05992869       5.40464599
Si       6.58297802       4.98788535       1.80518472
Si       9.04107977       5.68383881       1.80518472
Si       8.41474227       3.20708352       1.80518472
Si       9.22879534       1.55120606       2.81752019
Si       4.74191953       5.11083343       2.81752019
Si      10.06808517       7.21676818       2.81752019
Si       8.01293335       4.62626922       3.53574340
Si       8.01293335       4.62626922       7.20374284
14
Lattice="7.6704951944511635 3.0315586436859764e-15 -1.2191072274665173e-15 3.8352475972255813 6.642843698001159 -2.063200533955532e-15 3.83524759722558 2.2142812326670542 6.759113823799852" Properties=species:S:1:pos:R:3 unique_starting_index=33 config_type=initial n_minim_iter=14 pbc="T T T"
Si       6.91227070       6.67970773       0.89287141
Si       9.99915682       3.95963217       0.89287141
Si       6.10005922       2.64634815       0.89287141
Si       8.77258257       3.41178953       5.22028440
Si       6.23890071       3.98251393       5.22028440
Si       8.00000346       5.89138459       5.22028440
Si       6.26515799       4.70607787       1.73985827
Si       8.61349957       5.50686314       1.73985827
Si       8.13282917       3.07274704       1.73985827
Si       8.84924819       1.36959290       2.79459354
Si       4.43197373       4.93721787       2.79459354
Si       9.73026482       6.97887728       2.79459354
Si       7.67049558       4.42856268       3.54875540
Si       7.67049558       4.42856268       7.25167737
14
Lattice="8.393374658335459 5.90317718857933e-16 -3.087543044052621e-16 4.196687329167731 7.268875677599035 -2.958290737384707e-15 4.196687329167729 2.4229585591996776 7.004948822916384" Properties=species:S:1:pos:R:3 unique_starting_index=33 config_type=initial n_minim_iter=15 pbc="T T T"
Si       7.56330870       7.33054066       0.92697380
Si      10.96015517       4.32246428       0.92697380
Si       6.65666137       2.88474714       0.92697380
Si       9.60601740       3.71403776       5.39999044
Si       6.80681744       4.36167810       5.39999044
Si       8.76729040       6.46203621       5.39999044
Si       6.84055966       5.13649186       1.79316416
Si       9.42142770       6.04540771       1.79316416
Si       8.91813789       3.35585250       1.79316416
Si       9.69537640       1.44270763       2.91536928
Si       4.79510834       5.41995601       2.91536928
Si      10.68964050       7.67508844       2.91536928
Si       8.39337508       4.84591736       3.66390266
Si       8.39337508       4.84591736       7.52747024
14
Lattice="7.842249300837376 3.4269150894486665e-15 -5.819588824330784e-16 3.9211246504186876 6.791587117335916 -3.4224889630306477e-15 3.9211246504186876 2.263862372445305 6.538875799653991" Properties=species:S:1:pos:R:3 unique_starting_index=33 config_type=initial n_minim_iter=16 pbc="T T T"
Si       7.06725938       6.84969753       0.86630940
Si      10.24063208       4.03789999       0.86630940
Si       6.21885763       2.69557738       0.86630940
Si       8.97210967       3.47242140       5.04121290
Si       6.36340001       4.07688931       5.04121290
Si       8.19123940       6.03386420       5.04121290
Si       6.39133986       4.79906692       1.67509453
Si       8.80269364       5.64857877       1.67509453
Si       8.33271559       3.13552922       1.67509453
Si       9.05776406       1.34502771       2.72032681
Si       4.47819583       5.06640727       2.72032681
Si       9.99078919       7.17173992       2.72032681
Si       7.84224969       4.52772497       3.41767100
Si       7.84224969       4.52772497       7.02401338
14
Lattice="7.844599384022183 5.496002715558025e-16 -9.237805238255087e-16 3.9222996920110935 6.793622349074964 -3.517077679504772e-15 3.9222996920110917 2.264540783024986 6.5622009494916815" Properties=species:S:1:pos:R:3 unique_starting_index=33 config_type=initial n_minim_iter=17 pbc="T T T"
Si       7.06813964       6.85482079       0.87012922
Si      10.24697891       4.03864649       0.87012922
Si       6.21868078       2.69377809       0.87012922
Si       8.97507336       3.47187651       5.05920360
Si       6.36379636       4.07866559       5.05920360
Si       8.19492962       6.03670327       5.05920360
Si       6.39010239       4.79985392       1.67902769
Si       8.80634402       5.65332741       1.67902769
Si       8.33735293       3.13406404       1.67902769
Si       9.06141868       1.33886663       2.73088080
Si       4.47338295       5.07039329       2.73088080
Si       9.99899770       7.17798545       2.73088080
Si       7.84459978       4.52908179       3.42978925
Si       7.84459978       4.52908179       7.05050562
14
Lattice="7.8342318386108785 5.005948400526035e-16 -1.1427179669004057e-15 3.917115919305441 6.784643791373885 -3.873284328061169e-15 3.9171159193054397 2.26154793045796 6.568075397610625" Properties=species:S:1:pos:R:3 unique_starting_index=33 config_type=initial n_minim_iter=18 pbc="T T T"
Si       7.05738919       6.84895356       0.87161998
Si      10.23690541       4.03293316       0.87161998
Si       6.20840209       2.68740153       0.87161998
Si       8.96344636       3.46569543       5.06386314
Si       6.35388934       4.07386829       5.06386314
Si       8.18536100       6.02972454       5.06386314
Si       6.37852936       4.79285678       1.67855811
Si       8.79570329       5.64889140       1.67855811
Si       8.32846405       3.12754007       1.67855811
Si       9.05035209       1.33017951       2.73418311
Si       4.46102544       5.06636368       2.73418311
Si       9.99131917       7.17274506       2.73418311
Si       7.83423223       4.52309608       3.43239104
Si       7.83423223       4.52309608       7.05810354
14
Lattice="7.825571824695482 1.1895457441409434e-15 -1.2560039881589286e-15 3.912785912347742 6.777143999326025 -4.402353532383277e-15 3.9127859123477404 2.2590479997753397 6.572443373344251" Properties=species:S:1:pos:R:3 unique_starting_index=33 config_type=initial n_minim_iter=19 pbc="T T T"
Si       7.04763400       6.84553639       0.87307887
Si      10.23016364       4.02809039       0.87307887
Si       6.19891901       2.68066188       0.87307887
Si       8.95385701       3.45978215       5.06746834
Si       6.34490295       4.07012997       5.06746834
Si       8.17795670       6.02437655       5.06746834
Si       6.36751014       4.78667266       1.67717319
Si       8.78719727       5.64652681       1.67717319
Si       8.32200924       3.12108920       1.67717319
Si       9.04152006       1.31956878       2.73712342
Si       4.44759228       5.06431822       2.73712342
Si       9.98760432       7.17040166       2.73712342
Si       7.82557222       4.51809622       3.43392001
Si       7.82557222       4.51809622       7.06433832
14
Lattice="7.825378963454661 2.196203783827662e-15 -1.7842771094559857e-15 3.9126894817273294 6.776976976592069 -4.433702174133421e-15 3.9126894817273294 2.258992325530688 6.57240902901471" Properties=species:S:1:pos:R:3 unique_starting_index=33 config_type=initial n_minim_iter=20 pbc="T T T"
Si       7.04737814       6.84552805       0.87310628
Si      10.23009149       4.02798211       0.87310628
Si       6.19866845       2.68044446       0.87310628
Si       8.95364898       3.45961650       5.06745526
Si       6.34467065       4.07005890       5.06745526
Si       8.17781844       6.02427922       5.06745526
Si       6.36720315       4.78651957       1.67707068
Si       8.78702533       5.64653516       1.67707068
Si       8.32190959       3.12089989       1.67707068
Si       9.04134092       1.31917641       2.73715158
Si       4.44714918       5.06433551       2.73715158
Si       9.98764797       7.17044271       2.73715158
Si       7.82537936       4.51798487       3.43386668
Si       7.82537936       4.51798487       7.06435454
14
Lattice="7.814597075151638 1.1780311801659252e-15 -2.1225099154016488e-15 3.9072985375758185 6.767639587420885 -4.398777830288659e-15 3.907298537575817 2.2558798624736265 6.57008768404962" Properties=species:S:1:pos:R:3 unique_starting_index=33 config_type=initial n_minim_iter=21 pbc="T T T"
Si       7.03298034       6.84521577       0.87461502
Si      10.22623805       4.02193232       0.87461502
Si       6.18457401       2.66813175       0.87461502
Si       8.94203184       3.45028040       5.06643804
Si       6.33161202       4.06611291       5.06643804
Si       8.17014854       6.01888653       5.06643804
Si       6.34990084       4.77792712       1.67114601
Si       8.77745331       5.64714085       1.67114601
Si       8.31643825       3.11021188       1.67114601
Si       9.03136392       1.29688410       2.73859772
Si       4.42205009       5.06544722       2.73859772
Si       9.99037840       7.17294853       2.73859772
Si       7.81459747       4.51175995       3.43063113
Si       7.81459747       4.51175995       7.06487141
14
Lattice="7.814398023584638 -2.1817861316178975e-15 -2.611129949503282e-15 3.9071990117923208 6.767467203707199 -4.454641228302746e-15 3.907199011792318 2.2558224012357306 6.546265059463261" Properties=species:S:1:pos:R:3 unique_starting_index=33 config_type=initial n_minim_iter=22 pbc="T T T"
Si       7.02731033       6.85409982       0.87309556
Si      10.23656782       4.02205590       0.87309556
Si       6.17931710       2.65877935       0.87309556
Si       8.94254442       3.44572418       5.04940414
Si       6.32721089       4.06760235       5.04940414
Si       8.17343994       6.02160854       5.04940414
Si       6.34143748       4.77580341       1.66005359
Si       8.77964675       5.65518743       1.66005359
Si       8.32211102       3.10394424       1.66005359
Si       9.03337665       1.27588213       2.73078881
Si       4.40265643       5.07386035       2.73078881
Si      10.00716217       7.18519259       2.73078881
Si       7.81439842       4.51164502       3.41569708
Si       7.81439842       4.51164502       7.04152013
14
Lattice="7.823289362225791 -3.811620488640605e-16 -2.6662229140408536e-15 3.911644681112895 6.775167328844089 -4.7990849552878015e-15 3.911644681112893 2.2583891096146944 6.532100052296973" Properties=species:S:1:pos:R:3 unique_starting_index=33 config_type=initial n_minim_iter=23 pbc="T T T"
Si       7.02901326       6.87101144       0.87286101
Si      10.25925358       4.02752556       0.87286101
Si       6.18160242       2.65179833       0.87286101
Si       8.95351271       3.44529140       5.04041081
Si       6.33024328       4.07372017       5.04041081
Si       8.18611328       6.03132375       5.04041081
Si       6.34014565       4.77927834       1.65161889
Si       8.79219338       5.66996897       1.65161889
Si       8.33753023       3.10108802       1.65161889
Si       9.04569006       1.25596344       2.72637348
Si       4.38814097       5.08855623       2.72637348
Si      10.03603823       7.20581566       2.72637348
Si       7.82328976       4.51677844       3.40582833
Si       7.82328976       4.51677844       7.02804598
14
Lattice="7.806339996193073 -1.715702997116703e-15 -3.197328710070258e-15 3.903169998096537 6.760488747281716 -5.1114442590575874e-15 3.903169998096535 2.2534962490939026 6.4967431943679825" Properties=species:S:1:pos:R:3 unique_starting_index=33 config_type=initial n_minim_iter=24 pbc="T T T"
Si       7.00676800       6.86517246       0.86982691
Si      10.24837014       4.02035285       0.86982691
Si       6.16388302       2.63545285       0.86982691
Si       8.93481643       3.43379770       5.01568078
Si       6.31268822       4.06630131       5.01568078
Si       8.17151651       6.02087915       5.01568078
Si       6.31785947       4.76707735       1.63829615
Si       8.77582074       5.66601269       1.63829615
Si       8.32534095       3.08788812       1.63829615
Si       9.02783034       1.23176470       2.71228968
Si       4.35916474       5.08676540       2.71228968
Si      10.03202608       7.20244806       2.71228968
Si       7.80634039       4.50699272       3.38455693
Si       7.80634039       4.50699272       6.99123984
14
Lattice="7.817248040530705 -4.752788581997849e-16 -3.5732580454173e-15 3.9086240202653513 6.769935390783712 -5.432515949152908e-15 3.90862402026535 2.256645130261235 6.502960732173816" Properties=species:S:1:pos:R:3 unique_starting_index=33 config_type=initial n_minim_iter=25 pbc="T T T"
Si       7.01505666       6.87651095       0.87098276
Si      10.26495328       4.02639870       0.87098276
Si       6.17173536       2.63696179       0.87098276
Si       8.94750409       3.43777500       5.02103345
Si       6.32069687       4.07221811       5.02103345
Si       8.18354433       6.02987834       5.02103345
Si       6.32494139       4.77334766       1.63900869
Si       8.78861807       5.67563771       1.63900869
Si       8.33818584       3.09088609       1.63900869
Si       9.04078428       1.22923647       2.71493491
Si       4.36140631       5.09570436       2.71493491
Si      10.04955471       7.21493061       2.71493491
Si       7.81724843       4.51329048       3.38738892
Si       7.81724843       4.51329048       6.99812738
14
Lattice="7.820679611085961 -1.627237753610165e-16 -3.755476259395427e-15 3.9103398055429777 6.7729072180594425 -5.705268893718419e-15 3.910339805542977 2.2576357393531454 6.500681609723338" Properties=species:S:1:pos:R:3 unique_starting_index=33 config_type=initial n_minim_iter=26 pbc="T T T"
Si       7.01625071       6.88168037       0.87108862
Si      10.27226467       4.02872357       0.87108862
Si       6.17352463       2.63541117       0.87108862
Si       8.95163874       3.43832994       5.02000609
Si       6.32254172       4.07430358       5.02000609
Si       8.18785956       6.03318158       5.02000609
Si       6.32558884       4.77498119       1.63743564
Si       8.79314060       5.68020389       1.63743564
Si       8.34331057       3.09063003       1.63743564
Si       9.04513733       1.22454374       2.71397558
Si       4.35859733       5.10022453       2.71397558
Si      10.05830536       7.22104683       2.71397558
Si       7.82068000       4.51527170       3.38558946
Si       7.82068000       4.51527170       6.99587586
14
Lattice="7.821104073695916 -2.8912838108125264e-15 -4.137111866774097e-15 3.910552036847957 6.77327481346262 -5.6935661566327376e-15 3.9105520368479545 2.2577582711542035 6.4977484802413485" Properties=species:S:1:pos:R:3 unique_starting_index=33 config_type=initial n_minim_iter=27 pbc="T T T"
Si       7.01550784       6.88330741       0.87093956
Si      10.27446963       4.02928858       0.87093956
Si       6.17333593       2.63395430       0.87093956
Si       8.95223970       3.43797358       5.01818823
Si       6.32235708       4.07469652       5.01818823
Si       8.18871663       6.03388020       5.01818823
Si       6.32468656       4.77497259       1.63612928
Si       8.79400875       5.68172477       1.63612928
Si       8.34461809       3.08985294       1.63612928
Si       9.04584297       1.22155100       2.71271816
Si       4.35607719       5.10184499       2.71271816
Si      10.06139324       7.22315430       2.71271816
Si       7.82110447       4.51551677       3.38368676
Si       7.82110447       4.51551677       6.99282210
14
Lattice="7.824231081209061 -4.939730485806765e-16 -4.5393137618475116e-15 3.9121155406045274 6.7759828814068275 -5.97397274071675e-15 3.912115540604526 2.258660960468939 6.477661893730061" Properties=species:S:1:pos:R:3 unique_starting_index=33 config_type=initial n_minim_iter=28 pbc="T T T"
Si       7.01025378       6.89493464       0.86998159
Si      10.29029314       4.03344126       0.86998159
Si       6.17214750       2.62359054       0.86998159
Si       8.95664117       3.43552551       5.00589685
Si       6.32116326       4.07752490       5.00589685
Si       8.19489000       6.03891603       5.00589685
Si       6.31835216       4.77497681       1.62709663
Si       8.80030662       5.69262455       1.62709663
Si       8.35403564       3.08436507       1.62709663
Si       9.05095420       1.20032400       2.70401831
Si       4.33826546       5.11344817       2.70401831
Si      10.08347477       7.23819426       2.70401831
Si       7.82423147       4.51732214       3.37054151
Si       7.82423147       4.51732214       6.97188946
14
Lattice="7.825276077225765 -3.7150710081391036e-15 -4.713899059707843e-15 3.912638038612882 6.776887874504145 -5.7238018380487e-15 3.9126380386128785 2.2589626248347106 6.450895284143872" Properties=species:S:1:pos:R:3 unique_starting_index=33 config_type=initial n_minim_iter=29 pbc="T T T"
Si       7.00258092       6.90451909       0.86817357
Si      10.30347495       4.03710391       0.86817357
Si       6.16977354       2.61215341       0.86817357
Si       8.95867920       3.43239816       4.98880215
Si       6.31848087       4.07913357       4.98880215
Si       8.19866934       6.04224469       4.98880215
Si       6.31018031       4.77368171       1.61671037
Si       8.80431595       5.70215912       1.61671037
Si       8.36133315       3.07793559       1.61671037
Si       9.05349417       1.17888549       2.69188914
Si       4.31947417       5.12377774       2.69188914
Si      10.10286107       7.25111319       2.69188914
Si       7.82527647       4.51792547       3.35395536
Si       7.82527647       4.51792547       6.94346350
14
Lattice="7.833790657767209 -1.242930632350189e-15 -4.736776760689888e-15 3.916895328883602 6.784261717555604 -6.062511638828471e-15 3.9168953288835997 2.2614205725185315 6.441375073505651" Properties=species:S:1:pos:R:3 unique_starting_index=33 config_type=initial n_minim_iter=30 pbc="T T T"
Si       7.00515252       6.91670236       0.86791219
Si      10.32125475       4.04353289       0.86791219
Si       6.17496589       2.60828886       0.86791219
Si       8.96894983       3.43422681       4.98358832
Si       6.32344380       4.08407230       4.98358832
Si       8.20897952       6.05022499       4.98358832
Si       6.31190632       4.77775652       1.61240509
Si       8.81549641       5.71337463       1.61240509
Si       8.37397042       3.07739296       1.61240509
Si       9.06403565       1.16829230       2.68708207
Si       4.31354404       5.13469283       2.68708207
Si      10.12379347       7.26553898       2.68708207
Si       7.83379105       4.52284137       3.34764331
Si       7.83379105       4.52284137       6.93333433
14
Lattice="7.830655838370659 -7.01067768320989e-16 -4.668808728417763e-15 3.9153279191853265 6.781546884321917 -6.242647938553686e-15 3.9153279191853243 2.2605156281073024 6.428360625430337" Properties=species:S:1:pos:R:3 unique_starting_index=33 config_type=initial n_minim_iter=31 pbc="T T T"
Si       6.99910201       6.91682336       0.86682419
Si      10.32124998       4.04328262       0.86682419
Si       6.17161671       2.60298846       0.86682419
Si       8.96565861       3.43174276       4.97494433
Si       6.31980334       4.08273494       4.97494433
Si       8.20650674       6.04861673       4.97494433
Si       6.30614093       4.77513548       1.60802707
Si       8.81297440       5.71424846       1.60802707
Si       8.37285336       3.07371051       1.60802707
Si       9.06080079       1.16043053       2.68098516
Si       4.30521815       5.13599551       2.68098516
Si      10.12594975       7.26666840       2.68098516
Si       7.83065623       4.52103148       3.33994294
Si       7.83065623       4.52103148       6.91935477
14
Lattice="7.834526505918642 -2.9732449597196476e-15 -4.727604543205481e-15 3.917263252959319 6.784898980748075 -6.210169014173504e-15 3.9172632529593163 2.2616329935826873 6.421826195910529" Properties=species:S:1:pos:R:3 unique_starting_index=33 config_type=initial n_minim_iter=32 pbc="T T T"
Si       6.99971881       6.92269749       0.86651415
Si      10.32989939       4.04651558       0.86651415
Si       6.17396250       2.60058556       0.86651415
Si       8.97038313       3.43247368       4.97112623
Si       6.32194474       4.08498212       4.97112623
Si       8.21125283       6.05234283       4.97112623
Si       6.30642611       4.77686415       1.60542388
Si       8.81819955       5.71984134       1.60542388
Si       8.37895504       3.07309314       1.60542388
Si       9.06562633       1.15465956       2.67765809
Si       4.30167825       5.14140616       2.67765809
Si      10.13627612       7.27373291       2.67765809
Si       7.83452690       4.52326621       3.33580100
Si       7.83452690       4.52326621       6.91234949
14
Lattice="7.836591519123941 -3.981439341656003e-15 -4.6870564139313435e-15 3.918295759561969 6.7866873346430125 -6.175831821597018e-15 3.9182957595619654 2.2622291115476663 6.405817447403203" Properties=species:S:1:pos:R:3 unique_starting_index=33 config_type=initial n_minim_iter=33 pbc="T T T"
Si       6.99644385       6.92885333       0.86538654
Si      10.33893299       4.04985057       0.86538654
Si       6.17439890       2.59467144       0.86538654
Si       8.97325481       3.43172025       4.96098713
Si       6.32192143       4.08644860       4.96098713
Si       8.21459950       6.05520649       4.96098713
Si       6.30302648       4.77698507       1.59975747
Si       8.82206910       5.72630176       1.59975747
Si       8.38468016       3.07008851       1.59975747
Si       9.06860837       1.14372487       2.66981042
Si       4.29278253       5.14786768       2.66981042
Si      10.14838484       7.28178278       2.66981042
Si       7.83659191       4.52445845       3.32611085
Si       7.83659191       4.52445845       6.89514591
14
Lattice="7.87161390104336 -2.6597629063639566e-15 -4.500996769045624e-15 3.9358069505216786 6.817017607086272 -6.147005891029154e-15 3.935806950521675 2.272339202362086 6.301763556262483" Properties=species:S:1:pos:R:3 unique_starting_index=33 config_type=initial n_minim_iter=34 pbc="T T T"
Si       6.98997811       6.99041973       0.85871951
Si      10.43050631       4.08532741       0.85871951
Si       6.19435846       2.55828875       0.85871951
Si       9.01726030       3.43547616       4.89679588
Si       6.33819378       4.10712132       4.89679588
Si       8.25938881       6.09143840       4.89679588
Si       6.29409543       4.78981024       1.56232217
Si       8.87266393       5.78828424       1.56232217
Si       8.44808353       3.05594141       1.56232217
Si       9.11333728       1.06841851       2.61725557
Si       4.24022323       5.20744504       2.61725557
Si      10.26128238       7.35817234       2.61725557
Si       7.87161430       4.54467863       3.26248972
Si       7.87161430       4.54467863       6.78329681
14
Lattice="7.690455952740775 -3.982291253484339e-15 -4.851793056526702e-15 3.845227976370387 6.660130221758764 -6.5755882692472495e-15 3.8452279763703827 2.220043407252916 5.975003789760532" Properties=species:S:1:pos:R:3 unique_starting_index=33 config_type=initial n_minim_iter=35 pbc="T T T"
Si       6.74734019       6.87810328       0.82980641
Si      10.27339842       4.03784146       0.82980641
Si       6.05063041       2.40431636       0.82980641
Si       8.82063623       3.34007981       4.68196212
Si       6.17273219       4.01132615       4.68196212
Si       8.07800060       5.96885514       4.68196212
Si       6.06577805       4.65751459       1.46501518
Si       8.69109327       5.73838592       1.46501518
Si       8.31449769       2.92436059       1.46501518
Si       8.91013002       0.89834898       2.44962745
Si       4.01338437       5.15468767       2.44962745
Si      10.14785463       7.26722445       2.44962745
Si       7.69045634       4.44008703       3.06761846
Si       7.69045634       4.44008703       6.43785194
14
Lattice="8.034792137108838 -3.880265052188391e-16 -4.74434368642809e-15 4.017396068554414 6.958334104863709 -6.3861813611023934e-15 4.017396068554413 2.3194447016212325 6.203643987336052" Properties=species:S:1:pos:R:3 unique_starting_index=33 config_type=initial n_minim_iter=36 pbc="T T T"
Si       7.04733530       7.18516374       0.86093712
Si      10.73365923       4.22091563       0.86093712
Si       6.32338310       2.51058952       0.86093712
Si       9.21725751       3.48790785       4.86113220
Si       6.44678060       4.19033582       4.86113220
Si       8.44033952       6.23842522       4.86113220
Si       6.33370923       4.86486152       1.51952614
Si       9.08103159       5.99908505       1.51952614
Si       8.68963680       3.05272233       1.51952614
Si       9.31011853       0.93688624       2.54467877
Si       4.19110057       5.38542662       2.54467877
Si      10.60315853       7.59435603       2.54467877
Si       8.03479254       4.63888963       3.18559415
Si       8.03479254       4.63888963       6.68616095
14
Lattice="7.920112258458756 -2.6201878591883032e-15 -4.6586638510754595e-15 3.960056129229376 6.859018416649819 -6.3223642143011675e-15 3.960056129229372 2.2863394722166026 6.131126169716381" Properties=species:S:1:pos:R:3 unique_starting_index=33 config_type=initial n_minim_iter=37 pbc="T T T"
Si       6.94609742       7.08275930       0.85094199
Si      10.58091344       4.16116104       0.85094199
Si       6.23332711       2.47411716       0.85094199
Si       9.08556580       3.43871520       4.80519112
Si       6.35534448       4.13034912       4.80519112
Si       8.31942769       6.14897319       4.80519112
Si       6.24214064       4.79481541       1.50217470
Si       8.95147429       5.91477744       1.50217470
Si       8.56672303       3.00844466       1.50217470
Si       9.17699843       0.92249165       2.51389995
Si       4.13051465       5.30927792       2.51389995
Si      10.45282489       7.48626794       2.51389995
Si       7.92011266       4.57267917       3.14726430
Si       7.92011266       4.57267917       6.60810233
