22
Lattice="6.593989896777658 0.6265571359608806 -0.19513955641164377 -0.9802520347500387 6.2330417402568 -2.934919890406793 -1.713928828701891 -4.478798923934012 14.157589142746385" Properties=species:S:1:pos:R:3 unique_starting_index=51 config_type=initial n_minim_iter=1 energy=-3709.7380876014713 free_energy=-3709.7380876014713 pbc="T T T"
Si       4.47003162       6.05473686       1.64007218
Si      -0.50584010       0.04014160       7.69391743
Si       2.10463925       7.06337725      -3.96570248
Si      -2.19849288       1.70003869       2.31011668
Si       0.07880995       0.10037667       5.92572202
Si       4.89568426       0.85974915       6.07640486
Si      -1.28366690       0.50041575       1.33498546
Si       0.44613690       0.42395745       0.60438515
Si      -0.86183314      -1.36461836       6.52537502
Si       6.73835989       1.45145569      10.34770286
Si      -0.17204059       1.47453415       8.82490566
Si       3.67949996       0.65685720       1.87183523
Si      -1.47467312       0.17496015       3.21608302
Si       3.29075829      -1.52867208      14.94742145
Si       6.12556600      -0.26000883      10.66377133
Si       4.56825849       4.18153192       2.09095156
Si       2.35177282       0.39939477       0.56720003
Si       5.28663228       2.44575720      10.06456043
Si       5.43456571       0.76212638       9.23520723
Si       0.44340907      -1.57521610       5.23019855
Si       3.65407533       1.74144844       0.47204595
Si       4.12426925      -0.00062384       0.23256174
22
Lattice="6.593946577657509 0.6265331288903894 -0.19509880285108314 -0.9802884512425627 6.233053232784612 -2.934951393021203 -1.7138109479334303 -4.4787862907050595 14.157724836091223" Properties=species:S:1:pos:R:3 unique_starting_index=51 config_type=initial n_minim_iter=2 stress="-4.214194646607747e-05 -4.271447488715406e-06 -1.964725362246523e-05 -4.271447488715406e-06 -5.193795898733382e-05 1.081789629526555e-05 -1.964725362246523e-05 1.081789629526555e-05 -7.194415612222845e-05" pbc="T T T"
Si       4.46999445       6.05469639       1.64014209
Si      -0.50578386       0.04013877       7.69396261
Si       2.10464188       7.06338987      -3.96570523
Si      -2.19847286       1.70007523       2.31013914
Si       0.07884130       0.10040350       5.92575502
Si       4.89568440       0.85974995       6.07651407
Si      -1.28374439       0.50040269       1.33501950
Si       0.44616387       0.42397901       0.60433919
Si      -0.86180085      -1.36466391       6.52543250
Si       6.73833759       1.45145594      10.34781028
Si      -0.17197789       1.47454084       8.82501866
Si       3.67958584       0.65684371       1.87186743
Si      -1.47463298       0.17500180       3.21605736
Si       3.29083093      -1.52866065      14.94760526
Si       6.12558175      -0.26002750      10.66389676
Si       4.56821320       4.18154333       2.09100675
Si       2.35185058       0.39940575       0.56727855
Si       5.28662883       2.44580543      10.06474537
Si       5.43458238       0.76210599       9.23534949
Si       0.44346975      -1.57522498       5.23024276
Si       3.65397702       1.74133244       0.47209137
Si       4.12422584      -0.00062004       0.23263488
22
Lattice="6.594007504712302 0.6265442203199035 -0.19506369519086802 -0.9803136080596393 6.233143427302186 -2.935032069039584 -1.7137413839986764 -4.478882291036806 14.158009838682059" Properties=species:S:1:pos:R:3 unique_starting_index=51 config_type=initial n_minim_iter=3 stress="0.00032708590794575007 5.141849766802304e-05 6.952643020113894e-05 5.141849766802304e-05 0.00043235131685744293 0.0001057930734830951 6.952643020113894e-05 0.0001057930734830951 0.0005289081468670029" pbc="T T T"
Si       4.47004573       6.05476787       1.64018057
Si      -0.50574072       0.04011844       7.69410775
Si       2.10466795       7.06349084      -3.96579699
Si      -2.19848234       1.70010733       2.31016966
Si       0.07887387       0.10039935       5.92585640
Si       4.89576575       0.85975198       6.07667063
Si      -1.28375663       0.50040110       1.33503650
Si       0.44615530       0.42400107       0.60435183
Si      -0.86177823      -1.36471636       6.52556452
Si       6.73845266       1.45146643      10.34804390
Si      -0.17192251       1.47453194       8.82519778
Si       3.67966927       0.65684175       1.87193313
Si      -1.47460557       0.17500188       3.21611651
Si       3.29093376      -1.52872179      14.94793189
Si       6.12569518      -0.26005841      10.66413290
Si       4.56826152       4.18159614       2.09105832
Si       2.35188520       0.39940005       0.56732769
Si       5.28674731       2.44583890      10.06497940
Si       5.43468583       0.76209201       9.23556036
Si       0.44351827      -1.57526289       5.23034806
Si       3.65400690       1.74135459       0.47214228
Si       4.12425977      -0.00064071       0.23266876
22
Lattice="6.593908190794566 0.6264962514875115 -0.1949922595452543 -0.9803799323587655 6.233133497079015 -2.935197420695206 -1.713500583796458 -4.479174463309172 14.158052655300713" Properties=species:S:1:pos:R:3 unique_starting_index=51 config_type=initial n_minim_iter=4 stress="-8.303104303460068e-05 -0.00010920449174349258 9.845075411622183e-05 -0.00010920449174349258 -2.183675416368088e-05 -0.00024361069684844302 9.845075411622183e-05 -0.00024361069684844302 0.0001205334497389229" pbc="T T T"
Si       4.46995195       6.05457975       1.64004264
Si      -0.50563224       0.03991644       7.69404685
Si       2.10465862       7.06345287      -3.96596705
Si      -2.19844795       1.70010202       2.31009432
Si       0.07892746       0.10027996       5.92575929
Si       4.89576481       0.85956326       6.07672026
Si      -1.28375426       0.50035009       1.33499538
Si       0.44608136       0.42405228       0.60434309
Si      -0.86170796      -1.36492939       6.52557586
Si       6.73843282       1.45119521      10.34800885
Si      -0.17180599       1.47424948       8.82515422
Si       3.67979397       0.65672784       1.87198845
Si      -1.47445051       0.17494938       3.21610441
Si       3.29100713      -1.52913276      14.94797258
Si       6.12571070      -0.26038231      10.66411003
Si       4.56816214       4.18145160       2.09096576
Si       2.35188712       0.39931548       0.56744444
Si       5.28682263       2.44560675      10.06497197
Si       5.43470967       0.76179489       9.23554931
Si       0.44364179      -1.57539561       5.23034940
Si       3.65392315       1.74129198       0.47224468
Si       4.12417466      -0.00076736       0.23273411
22
Lattice="6.593953997751898 0.6265631076584138 -0.1950267273046738 -0.9802948524616328 6.233049974329652 -2.935014427791275 -1.713667888895904 -4.47888805901643 14.157756283331949" Properties=species:S:1:pos:R:3 unique_starting_index=51 config_type=initial n_minim_iter=5 stress="-1.5852654036385658e-05 2.8926875136511808e-05 -2.895065474468904e-05 2.8926875136511808e-05 2.0887248054631e-05 0.00011114599793579 -2.895065474468904e-05 0.00011114599793579 -5.3635393618519225e-05" pbc="T T T"
Si       4.47002725       6.05464520       1.64009786
Si      -0.50569386       0.04006983       7.69392102
Si       2.10482131       7.06337363      -3.96577354
Si      -2.19846398       1.70013622       2.31011855
Si       0.07887251       0.10041563       5.92564735
Si       4.89575458       0.85974582       6.07661959
Si      -1.28377556       0.50035948       1.33499349
Si       0.44607010       0.42409578       0.60433919
Si      -0.86178921      -1.36481376       6.52545705
Si       6.73838732       1.45149649      10.34781622
Si      -0.17185624       1.47442075       8.82505813
Si       3.67985256       0.65679380       1.87195904
Si      -1.47444583       0.17501047       3.21608388
Si       3.29086819      -1.52879076      14.94768681
Si       6.12564649      -0.26008983      10.66386731
Si       4.56820606       4.18154995       2.09097494
Si       2.35189774       0.39933472       0.56745607
Si       5.28681813       2.44590720      10.06483793
Si       5.43467097       0.76204602       9.23537252
Si       0.44359921      -1.57528429       5.23022463
Si       3.65394820       1.74133322       0.47227741
Si       4.12419003      -0.00074731       0.23269917
22
Lattice="6.594119750219411 0.6266032783753098 -0.19503548265271875 -0.9802772476526709 6.233000898631934 -2.935159275937059 -1.713729240597769 -4.479150480508048 14.157853570404106" Properties=species:S:1:pos:R:3 unique_starting_index=51 config_type=initial n_minim_iter=6 stress="0.0003071791087787604 2.126566460109487e-05 -0.00013433593276262798 2.126566460109487e-05 -0.0001340164836881554 -9.793260723959785e-05 -0.00013433593276262798 -9.793260723959785e-05 -1.7267880696262475e-05" pbc="T T T"
Si       4.47017951       6.05450641       1.63994704
Si      -0.50568858       0.03987696       7.69386826
Si       2.10504133       7.06335665      -3.96589680
Si      -2.19851439       1.70002633       2.31011690
Si       0.07882933       0.10029111       5.92557759
Si       4.89587990       0.85962440       6.07662711
Si      -1.28382138       0.50030239       1.33496687
Si       0.44610452       0.42415911       0.60432742
Si      -0.86183327      -1.36494558       6.52549218
Si       6.73850809       1.45125706      10.34778566
Si      -0.17184169       1.47416569       8.82499444
Si       3.68003749       0.65671062       1.87200694
Si      -1.47434882       0.17497774       3.21612204
Si       3.29088278      -1.52912392      14.94769869
Si       6.12576231      -0.26027027      10.66377787
Si       4.56832995       4.18154724       2.09084541
Si       2.35189626       0.39927574       0.56751881
Si       5.28704329       2.44577870      10.06480222
Si       5.43478399       0.76187802       9.23532275
Si       0.44360426      -1.57539989       5.23024146
Si       3.65399627       1.74126869       0.47229697
Si       4.12430041      -0.00080658       0.23270922
22
Lattice="6.593937031846257 0.626608596635286 -0.1949282754763686 -0.9802975236128305 6.233050559336967 -2.9351602943185897 -1.7134559704498835 -4.479146580405227 14.157839437981593" Properties=species:S:1:pos:R:3 unique_starting_index=51 config_type=initial n_minim_iter=7 stress="-0.0001035115611117435 2.530116211914297e-05 6.59403206785815e-05 2.530116211914297e-05 4.029953925849481e-05 7.145035103027588e-06 6.59403206785815e-05 7.145035103027588e-06 7.883341633369291e-06" pbc="T T T"
Si       4.47008478       6.05456224       1.64003968
Si      -0.50554577       0.03990047       7.69386087
Si       2.10495814       7.06340527      -3.96583341
Si      -2.19842004       1.70004638       2.31011044
Si       0.07889975       0.10031525       5.92556751
Si       4.89583986       0.85965276       6.07672771
Si      -1.28376567       0.50030702       1.33494283
Si       0.44610967       0.42419629       0.60433946
Si      -0.86170971      -1.36493060       6.52548796
Si       6.73846879       1.45129337      10.34792360
Si      -0.17169420       1.47420710       8.82500729
Si       3.67999431       0.65669945       1.87209596
Si      -1.47420949       0.17501525       3.21611801
Si       3.29100758      -1.52910250      14.94776601
Si       6.12574943      -0.26023069      10.66385789
Si       4.56823207       4.18161757       2.09091812
Si       2.35182599       0.39926383       0.56758347
Si       5.28709038       2.44587732      10.06491835
Si       5.43476971       0.76192863       9.23541441
Si       0.44367090      -1.57540804       5.23024819
Si       3.65388277       1.74126428       0.47238642
Si       4.12419297      -0.00083540       0.23278032
22
Lattice="6.593983210954118 0.6264790886597132 -0.19498238485775163 -0.980399574415305 6.233025927979435 -2.9351329591691684 -1.713505664054282 -4.479047318022477 14.157837799881369" Properties=species:S:1:pos:R:3 unique_starting_index=51 config_type=initial n_minim_iter=8 stress="-7.730652985973606e-05 -0.00021045717532659923 -8.935798256851575e-05 -0.00021045717532659923 -0.0001796895889019205 0.00011709289253763684 -8.935798256851575e-05 0.00011709289253763684 0.00022177827978114666" pbc="T T T"
Si       4.46999930       6.05444649       1.64002634
Si      -0.50558320       0.03994622       7.69385079
Si       2.10494181       7.06324961      -3.96580148
Si      -2.19849271       1.70009507       2.31020424
Si       0.07877626       0.10033172       5.92549161
Si       4.89578183       0.85957392       6.07669635
Si      -1.28379141       0.50031270       1.33492712
Si       0.44612087       0.42428343       0.60436225
Si      -0.86175101      -1.36483976       6.52548493
Si       6.73837108       1.45114690      10.34790504
Si      -0.17177142       1.47426087       8.82500894
Si       3.68003425       0.65654244       1.87214931
Si      -1.47412403       0.17515168       3.21613965
Si       3.29086903      -1.52914099      14.94769664
Si       6.12565725      -0.26030225      10.66367665
Si       4.56814451       4.18148678       2.09080739
Si       2.35186327       0.39918078       0.56763305
Si       5.28710718       2.44591057      10.06485492
Si       5.43466834       0.76192152       9.23531214
Si       0.44363478      -1.57541981       5.23022645
Si       3.65381201       1.74108992       0.47245160
Si       4.12422162      -0.00098454       0.23277476
22
Lattice="6.5940891053807125 0.6266094779695354 -0.19493807706058178 -0.9803263403505528 6.233176652890187 -2.935140833004775 -1.7135072665383648 -4.479362590251353 14.157479536252136" Properties=species:S:1:pos:R:3 unique_starting_index=51 config_type=initial n_minim_iter=9 stress="8.945437415346133e-05 -1.9148357927683115e-05 6.975053197937246e-05 -1.9148357927683115e-05 5.895458116443797e-05 -5.369483157714456e-06 6.975053197937246e-05 -5.369483157714456e-06 -0.00011585315409997972" pbc="T T T"
Si       4.47018355       6.05462914       1.63993035
Si      -0.50551395       0.03984684       7.69362290
Si       2.10509854       7.06344817      -3.96575608
Si      -2.19847835       1.70005920       2.31013459
Si       0.07878317       0.10025478       5.92528223
Si       4.89589239       0.85959420       6.07654816
Si      -1.28378811       0.50027418       1.33485983
Si       0.44615609       0.42434052       0.60435015
Si      -0.86174336      -1.36495329       6.52529802
Si       6.73854955       1.45113371      10.34765536
Si      -0.17166665       1.47418749       8.82473341
Si       3.68013197       0.65654368       1.87216009
Si      -1.47405466       0.17513988       3.21603571
Si       3.29096254      -1.52933489      14.94729053
Si       6.12578327      -0.26034660      10.66334840
Si       4.56828174       4.18160805       2.09068223
Si       2.35192806       0.39919708       0.56766285
Si       5.28734770       2.44597588      10.06456117
Si       5.43479493       0.76195125       9.23504323
Si       0.44363651      -1.57552929       5.23009543
Si       3.65387270       1.74113469       0.47249306
Si       4.12428028      -0.00095013       0.23282135
22
Lattice="6.594004382552441 0.6267976396961165 -0.19506712697409784 -0.9800841140779233 6.233204910404874 -2.9352416748688825 -1.7138584316277308 -4.479622600780945 14.157715648253133" Properties=species:S:1:pos:R:3 unique_starting_index=51 config_type=initial n_minim_iter=10 stress="-0.00013447652997913053 0.00011168795961627107 -0.00014033176232147187 0.00011168795961627107 7.045569851891402e-05 -6.383987068903904e-05 -0.00014033176232147187 -6.383987068903904e-05 6.869580194557774e-05" pbc="T T T"
Si       4.47024894       6.05475594       1.63976887
Si      -0.50560479       0.03975860       7.69370553
Si       2.10536113       7.06352502      -3.96592191
Si      -2.19843690       1.69995114       2.31021237
Si       0.07863121       0.10017257       5.92528995
Si       4.89569835       0.85964704       6.07651225
Si      -1.28377652       0.50021694       1.33487154
Si       0.44618809       0.42439957       0.60434325
Si      -0.86189039      -1.36507294       6.52535849
Si       6.73828019       1.45116055      10.34763872
Si      -0.17174638       1.47408322       8.82479581
Si       3.68009039       0.65656474       1.87218545
Si      -1.47401970       0.17511986       3.21608779
Si       3.29055511      -1.52950799      14.94735209
Si       6.12543256      -0.26034064      10.66325565
Si       4.56826565       4.18171356       2.09054103
Si       2.35192074       0.39921783       0.56766636
Si       5.28719014       2.44605391      10.06452914
Si       5.43451435       0.76205649       9.23500153
Si       0.44346220      -1.57561583       5.23015665
Si       3.65385427       1.74119034       0.47249006
Si       4.12420699      -0.00087526       0.23279106
22
Lattice="6.594131837512704 0.6267623238785476 -0.1949327230076608 -0.9801853496773262 6.23309846322773 -2.935214586227598 -1.7135961597397735 -4.479493843072647 14.15754926676121" Properties=species:S:1:pos:R:3 unique_starting_index=51 config_type=initial n_minim_iter=11 stress="3.467404660626518e-05 5.4625512067247586e-05 7.956591438101509e-05 5.4625512067247586e-05 -0.0001420877718557166 3.264332159482833e-05 7.956591438101509e-05 3.264332159482833e-05 5.009830690487396e-05" pbc="T T T"
Si       4.47033899       6.05466716       1.63984011
Si      -0.50542402       0.03982181       7.69362255
Si       2.10531801       7.06334573      -3.96580117
Si      -2.19844362       1.69992311       2.31018710
Si       0.07870576       0.10019154       5.92520710
Si       4.89588014       0.85964073       6.07656464
Si      -1.28376983       0.50021360       1.33482447
Si       0.44624450       0.42443734       0.60434430
Si      -0.86177708      -1.36502856       6.52523980
Si       6.73860872       1.45113338      10.34770559
Si      -0.17154520       1.47410754       8.82471883
Si       3.68023327       0.65650492       1.87232414
Si      -1.47392777       0.17518763       3.21603754
Si       3.29088366      -1.52949521      14.94723299
Si       6.12571455      -0.26033662      10.66319758
Si       4.56836584       4.18163692       2.09062236
Si       2.35200973       0.39917347       0.56775033
Si       5.28750348       2.44609269      10.06456380
Si       5.43475846       0.76215189       9.23500958
Si       0.44354894      -1.57559831       5.23011190
Si       3.65393558       1.74111660       0.47264195
Si       4.12430365      -0.00092779       0.23292007
22
Lattice="6.594145384707362 0.6266895172035011 -0.19497669466648446 -0.9802514485857704 6.2332599593436315 -2.93519734511558 -1.7136359347001624 -4.479637467858969 14.157382208512475" Properties=species:S:1:pos:R:3 unique_starting_index=51 config_type=initial n_minim_iter=12 stress="1.3390393161415244e-05 -9.503613831030362e-05 -3.761803352738755e-05 -9.503613831030362e-05 0.00011356036997470222 9.997959373105226e-07 -3.761803352738755e-05 9.997959373105226e-07 -7.267493259425343e-05" pbc="T T T"
Si       4.47025230       6.05474354       1.63973579
Si      -0.50546131       0.03980199       7.69349368
Si       2.10526963       7.06347887      -3.96576814
Si      -2.19849024       1.69996798       2.31017261
Si       0.07864327       0.10016518       5.92510622
Si       4.89582682       0.85956740       6.07644855
Si      -1.28377616       0.50022744       1.33480535
Si       0.44625119       0.42445662       0.60433397
Si      -0.86180673      -1.36507599       6.52514388
Si       6.73854445       1.45101690      10.34750817
Si      -0.17160008       1.47410494       8.82458635
Si       3.68024400       0.65644450       1.87231420
Si      -1.47392989       0.17521619       3.21600591
Si       3.29079852      -1.52966748      14.94697650
Si       6.12563297      -0.26048976      10.66295556
Si       4.56830345       4.18164859       2.09053830
Si       2.35202381       0.39913334       0.56774853
Si       5.28742087       2.44605522      10.06437907
Si       5.43468129       0.76211170       9.23482833
Si       0.44351872      -1.57568093       5.23003752
Si       3.65392117       1.74108544       0.47263393
Si       4.12432161      -0.00100918       0.23291707
22
Lattice="6.59415659737647 0.6267973026851839 -0.19495717389458173 -0.9801578571226751 6.233212523621643 -2.9352799951493425 -1.7136547019369404 -4.479761383709167 14.157506267510998" Properties=species:S:1:pos:R:3 unique_starting_index=51 config_type=initial n_minim_iter=13 stress="1.1764663952498532e-06 8.50113889397067e-06 6.070963580630381e-06 8.50113889397067e-06 -6.143534052272917e-06 -2.6750997784951016e-06 6.070963580630381e-06 -2.6750997784951016e-06 2.2646860089886786e-06" pbc="T T T"
Si       4.47033786       6.05476665       1.63965468
Si      -0.50540895       0.03972721       7.69347527
Si       2.10540414       7.06348536      -3.96577571
Si      -2.19845068       1.69988330       2.31017949
Si       0.07863087       0.10011337       5.92510935
Si       4.89583653       0.85958656       6.07651795
Si      -1.28371832       0.50017553       1.33479363
Si       0.44627710       0.42448318       0.60435957
Si      -0.86180985      -1.36512001       6.52517819
Si       6.73862445       1.45100721      10.34757813
Si      -0.17148636       1.47401058       8.82462392
Si       3.68030308       0.65646262       1.87241796
Si      -1.47386669       0.17519234       3.21603527
Si       3.29081415      -1.52976336      14.94704748
Si       6.12559780      -0.26051844      10.66293680
Si       4.56837143       4.18161745       2.09050931
Si       2.35205950       0.39913382       0.56780976
Si       5.28749399       2.44606998      10.06444586
Si       5.43468718       0.76224551       9.23487835
Si       0.44347764      -1.57574487       5.23007135
Si       3.65395114       1.74107634       0.47267828
Si       4.12433415      -0.00098839       0.23299392
22
Lattice="6.594158595363332 0.6268444473097081 -0.19498294992779794 -0.9801038787278914 6.2332140604069 -2.9353345745538495 -1.7137298503743899 -4.479860807143524 14.15761736589477" Properties=species:S:1:pos:R:3 unique_starting_index=51 config_type=initial n_minim_iter=14 stress="-1.5605893700767684e-06 -1.926351897878144e-06 -4.941363764180376e-06 -1.926351897878144e-06 6.132655598642003e-06 5.5243907077383445e-06 -4.941363764180376e-06 5.5243907077383445e-06 -3.9984816350359035e-06" pbc="T T T"
Si       4.47034385       6.05474326       1.63958756
Si      -0.50544723       0.03970807       7.69354212
Si       2.10547963       7.06352203      -3.96576044
Si      -2.19843271       1.69982578       2.31018715
Si       0.07859164       0.10008572       5.92507468
Si       4.89578066       0.85958550       6.07655654
Si      -1.28368753       0.50013032       1.33482792
Si       0.44630677       0.42449027       0.60442450
Si      -0.86186563      -1.36515814       6.52519282
Si       6.73863491       1.45097228      10.34757447
Si      -0.17142777       1.47393838       8.82468087
Si       3.68033099       0.65648453       1.87245269
Si      -1.47382526       0.17519560       3.21605919
Si       3.29076503      -1.52983067      14.94707937
Si       6.12545577      -0.26056792      10.66281243
Si       4.56839055       4.18160661       2.09046076
Si       2.35205834       0.39911429       0.56787504
Si       5.28748066       2.44608294      10.06447952
Si       5.43463714       0.76238773       9.23481246
Si       0.44340406      -1.57582608       5.23007112
Si       3.65396865       1.74104848       0.47270997
Si       4.12434445      -0.00103092       0.23305414
22
Lattice="6.59417128333585 0.6268909206471133 -0.1949807054218896 -0.9800641010874239 6.233199410459061 -2.9354244131609444 -1.7137427631551272 -4.479989919309529 14.15778171662338" Properties=species:S:1:pos:R:3 unique_starting_index=51 config_type=initial n_minim_iter=15 stress="2.2290362236990694e-06 -4.631840924794156e-07 6.466511528729915e-07 -4.631840924794156e-07 -6.790984383635404e-06 2.72295816205262e-06 6.466511528729915e-07 2.72295816205262e-06 -5.2461192042440325e-08" pbc="T T T"
Si       4.47036419       6.05467058       1.63954789
Si      -0.50545136       0.03963109       7.69355130
Si       2.10551378       7.06351613      -3.96581296
Si      -2.19839668       1.69977059       2.31017870
Si       0.07857617       0.10003010       5.92509194
Si       4.89577195       0.85956131       6.07663147
Si      -1.28368125       0.50007734       1.33487399
Si       0.44634866       0.42447238       0.60448601
Si      -0.86189058      -1.36519899       6.52524188
Si       6.73870167       1.45088872      10.34764464
Si      -0.17131698       1.47387021       8.82479323
Si       3.68035333       0.65649886       1.87247143
Si      -1.47377589       0.17516764       3.21609444
Si       3.29080046      -1.52994694      14.94719296
Si       6.12537803      -0.26061930      10.66274129
Si       4.56842149       4.18158956       2.09043514
Si       2.35206977       0.39908982       0.56792708
Si       5.28754159       2.44605661      10.06458884
Si       5.43463425       0.76245512       9.23482907
Si       0.44337209      -1.57590692       5.23009149
Si       3.65401720       1.74104872       0.47276478
Si       4.12435027      -0.00106294       0.23312420
22
Lattice="6.594171375907716 0.6269648795604009 -0.19498480529703097 -0.9800022302863202 6.233257293383332 -2.93557142926999 -1.713767984493178 -4.4802672027307295 14.158034904429352" Properties=species:S:1:pos:R:3 unique_starting_index=51 config_type=initial n_minim_iter=16 stress="-1.2374259798262676e-06 2.7977473420896503e-06 -4.3601139262775175e-06 2.7977473420896503e-06 -9.541585481260504e-08 2.4119080805701466e-06 -4.3601139262775175e-06 2.4119080805701466e-06 6.99237879817435e-07" pbc="T T T"
Si       4.47035818       6.05463872       1.63946076
Si      -0.50542719       0.03958467       7.69359115
Si       2.10557985       7.06360353      -3.96586699
Si      -2.19831737       1.69974281       2.31018313
Si       0.07853689       0.09991993       5.92515001
Si       4.89573344       0.85953030       6.07670742
Si      -1.28366196       0.49998812       1.33493342
Si       0.44636655       0.42442244       0.60458969
Si      -0.86192870      -1.36531189       6.52530721
Si       6.73875287       1.45072843      10.34776221
Si      -0.17117967       1.47370864       8.82488303
Si       3.68037066       0.65651490       1.87251216
Si      -1.47373542       0.17507018       3.21617370
Si       3.29085166      -1.53019061      14.94738216
Si       6.12522782      -0.26068188      10.66258929
Si       4.56842819       4.18160932       2.09039394
Si       2.35213427       0.39907040       0.56796009
Si       5.28763327       2.44602652      10.06477341
Si       5.43460461       0.76248454       9.23486140
Si       0.44335223      -1.57603564       5.23011829
Si       3.65406415       1.74107009       0.47280199
Si       4.12432330      -0.00108059       0.23317845
22
Lattice="6.594179199867601 0.6270051387785098 -0.19494961156047222 -0.979991617964045 6.233323934587889 -2.935716172187565 -1.7136899323588366 -4.480540253823098 14.158235053830818" Properties=species:S:1:pos:R:3 unique_starting_index=51 config_type=initial n_minim_iter=17 stress="-4.488978786003686e-06 1.7017396323523214e-06 -6.995785215536071e-07 1.7017396323523214e-06 -7.927426618395099e-08 4.257110810775226e-06 -6.995785215536071e-07 4.257110810775226e-06 -1.7366513003747955e-06" pbc="T T T"
Si       4.47033543       6.05462099       1.63938937
Si      -0.50536488       0.03953058       7.69361679
Si       2.10561391       7.06367672      -3.96595299
Si      -2.19822884       1.69968861       2.31019993
Si       0.07853282       0.09978782       5.92518899
Si       4.89573933       0.85947820       6.07676735
Si      -1.28366062       0.49990390       1.33497011
Si       0.44641131       0.42435430       0.60467172
Si      -0.86189676      -1.36538756       6.52538366
Si       6.73883316       1.45055645      10.34785503
Si      -0.17103257       1.47355164       8.82499253
Si       3.68043925       0.65653267       1.87262369
Si      -1.47374999       0.17496324       3.21620764
Si       3.29100456      -1.53047736      14.94759484
Si       6.12515686      -0.26079107      10.66245846
Si       4.56843749       4.18160123       2.09034504
Si       2.35216194       0.39907294       0.56802572
Si       5.28778855       2.44592876      10.06492212
Si       5.43464633       0.76245245       9.23489029
Si       0.44337458      -1.57614331       5.23014452
Si       3.65410869       1.74108295       0.47285155
Si       4.12436898      -0.00108659       0.23322692
22
Lattice="6.594218291154326 0.6270377592729983 -0.19490818388860892 -0.979999088207835 6.233413804270566 -2.9359025460524477 -1.7135923642465742 -4.480893612530239 14.158483840337365" Properties=species:S:1:pos:R:3 unique_starting_index=51 config_type=initial n_minim_iter=18 stress="1.4846133448240293e-06 9.054647545543064e-06 2.7259762679769845e-06 9.054647545543064e-06 -3.2154290783470522e-06 -4.9041999096236305e-06 2.7259762679769845e-06 -4.9041999096236305e-06 6.222794134249002e-07" pbc="T T T"
Si       4.47032575       6.05461072       1.63929494
Si      -0.50531302       0.03943465       7.69363646
Si       2.10569068       7.06378336      -3.96608374
Si      -2.19813593       1.69960872       2.31024516
Si       0.07853744       0.09961197       5.92520929
Si       4.89578723       0.85939055       6.07683522
Si      -1.28363347       0.49981528       1.33499388
Si       0.44644947       0.42426921       0.60475402
Si      -0.86184549      -1.36549937       6.52546413
Si       6.73898729       1.45037879      10.34799410
Si      -0.17088883       1.47335941       8.82512503
Si       3.68047855       0.65652770       1.87268587
Si      -1.47376118       0.17482884       3.21627984
Si       3.29121459      -1.53090117      14.94787605
Si       6.12510875      -0.26099582      10.66233626
Si       4.56847475       4.18162625       2.09030317
Si       2.35224132       0.39909538       0.56813302
Si       5.28797188       2.44574438      10.06506430
Si       5.43471215       0.76236011       9.23492258
Si       0.44338021      -1.57627269       5.23019151
Si       3.65416397       1.74106075       0.47291580
Si       4.12440360      -0.00109356       0.23325843
22
Lattice="6.594231997510329 0.6270021425033417 -0.1948862779182182 -0.9800570944411194 6.233509488802634 -2.936019446627592 -1.713498417975078 -4.481117601619353 14.158652819113712" Properties=species:S:1:pos:R:3 unique_starting_index=51 config_type=initial n_minim_iter=19 stress="-9.587162332605896e-06 5.2683931000065274e-06 -2.7933640690953774e-06 5.2683931000065274e-06 4.5285009596357335e-06 -6.71946404569464e-07 -2.7933640690953774e-06 -6.71946404569464e-07 1.0521487459634235e-06" pbc="T T T"
Si       4.47025556       6.05459637       1.63925624
Si      -0.50530645       0.03942022       7.69363204
Si       2.10571809       7.06389856      -3.96615796
Si      -2.19806460       1.69961786       2.31032094
Si       0.07853314       0.09950680       5.92518137
Si       4.89581316       0.85930686       6.07688234
Si      -1.28360353       0.49975595       1.33502868
Si       0.44650869       0.42419106       0.60479430
Si      -0.86180504      -1.36556159       6.52549983
Si       6.73903498       1.45020112      10.34809375
Si      -0.17082141       1.47324812       8.82519288
Si       3.68048152       0.65648851       1.87269148
Si      -1.47378213       0.17476094       3.21632307
Si       3.29136423      -1.53124340      14.94812367
Si       6.12502619      -0.26117872      10.66219124
Si       4.56844782       4.18156687       2.09026405
Si       2.35225881       0.39909183       0.56820087
Si       5.28804712       2.44559810      10.06520002
Si       5.43473205       0.76228951       9.23494179
Si       0.44336599      -1.57635630       5.23020945
Si       3.65421303       1.74103734       0.47301208
Si       4.12443248      -0.00113820       0.23329664
22
Lattice="6.594303438497209 0.6269388357369103 -0.19484628586492828 -0.9801523012359943 6.233557500925186 -2.936099968192694 -1.7133731907160312 -4.481246672590178 14.15874297189271" Properties=species:S:1:pos:R:3 unique_starting_index=51 config_type=initial n_minim_iter=20 stress="6.7962614182697055e-06 5.985547892292447e-06 -4.0597587904636e-09 5.985547892292447e-06 4.769718384896933e-07 1.7916195369383285e-06 -4.0597587904636e-09 1.7916195369383285e-06 -7.668084793589065e-06" pbc="T T T"
Si       4.47022757       6.05453220       1.63924617
Si      -0.50528914       0.03941481       7.69359336
Si       2.10570276       7.06394152      -3.96618333
Si      -2.19803165       1.69959341       2.31038051
Si       0.07856242       0.09945745       5.92512910
Si       4.89590670       0.85922024       6.07692198
Si      -1.28356286       0.49971435       1.33506552
Si       0.44650860       0.42414179       0.60484726
Si      -0.86176598      -1.36561250       6.52549116
Si       6.73913788       1.45003094      10.34817436
Si      -0.17075599       1.47319748       8.82523531
Si       3.68055173       0.65644201       1.87272532
Si      -1.47381727       0.17472966       3.21631830
Si       3.29160585      -1.53150279      14.94832074
Si       6.12506599      -0.26134288      10.66208591
Si       4.56845152       4.18150286       2.09026943
Si       2.35229691       0.39906247       0.56819953
Si       5.28820431       2.44545315      10.06528107
Si       5.43483289       0.76222149       9.23496745
Si       0.44337673      -1.57640865       5.23020277
Si       3.65427477       1.74098230       0.47310607
Si       4.12448084      -0.00119430       0.23335122
22
Lattice="6.594304104138207 0.6268286746394552 -0.19480839657723675 -0.9802826006997164 6.23361716749838 -2.9362194498188643 -1.713196844876783 -4.4813893044594435 14.158972480231236" Properties=species:S:1:pos:R:3 unique_starting_index=51 config_type=initial n_minim_iter=21 stress="2.6367372395552714e-06 8.621823533013939e-07 1.940360640649427e-06 8.621823533013939e-07 3.930950632155819e-06 6.077739756106865e-07 1.940360640649427e-06 6.077739756106865e-07 3.25288645337276e-06" pbc="T T T"
Si       4.47010912       6.05444563       1.63918768
Si      -0.50526203       0.03940448       7.69364319
Si       2.10560145       7.06395980      -3.96625082
Si      -2.19799092       1.69955925       2.31045372
Si       0.07859955       0.09943440       5.92512678
Si       4.89595052       0.85908471       6.07700345
Si      -1.28355761       0.49967943       1.33513855
Si       0.44654191       0.42409966       0.60486882
Si      -0.86172251      -1.36565269       6.52556913
Si       6.73916946       1.44981169      10.34834995
Si      -0.17069857       1.47315102       8.82534766
Si       3.68057161       0.65634757       1.87279499
Si      -1.47381450       0.17467822       3.21639349
Si       3.29187716      -1.53179976      14.94868746
Si       6.12505713      -0.26158805      10.66210359
Si       4.56835626       4.18137987       2.09028509
Si       2.35230401       0.39900743       0.56818794
Si       5.28828154       2.44526892      10.06545117
Si       5.43487494       0.76208723       9.23505200
Si       0.44340145      -1.57647060       5.23022947
Si       3.65429523       1.74089461       0.47319645
Si       4.12445292      -0.00129343       0.23340117
