14
Lattice="6.149134141859696 0.10855428351339261 -3.0057304105209827e-13 0.0881341915549029 3.8241460622697554 4.806069752939504e-14 5.160260654899e-13 -1.4392325564913772e-13 10.505002935244423" Properties=species:S:1:pos:R:3 unique_starting_index=0 config_type=initial n_minim_iter=1 energy=-2270.3570323343865 free_energy=-2270.3570323343865 pbc="T T T"
Si       0.22561945       1.57706415       8.17714448
Si       2.89301472       0.38928603       2.92464301
Si       6.01164889       2.35563620       2.32785846
Si       3.34425361       3.54341432       7.58035993
Si       5.24392624       0.44805529       3.55871277
Si       4.02384206       1.62684917       8.81121424
Si       0.99334209       3.48464506       6.94629016
Si       2.21342627       2.30585118       1.69378870
Si       3.06602096       0.99479986       4.45018271
Si       0.05261321       0.97155032       9.70268418
Si       3.17124737       2.93790049       6.05482022
Si       6.18465513       2.96115003       0.80231876
Si       3.07456707       0.05427714      -0.00000000
Si       0.04406710       1.91207303       5.25250147
14
Lattice="6.1491689814741175 0.1086592657665087 -3.005733132738579e-13 0.08819880406876823 3.8242126374051555 4.8058436498062545e-14 5.161144262648674e-13 -1.439478962025801e-13 10.50680169311226" Properties=species:S:1:pos:R:3 unique_starting_index=0 config_type=initial n_minim_iter=2 stress="-0.00013017663029133613 -0.000271447185587717 5.899626052504321e-15 -0.000271447185587717 0.0011096058469446583 2.0313229743527287e-14 5.899626052504321e-15 2.0313229743527287e-14 0.003830287642905476" pbc="T T T"
Si       0.22564946       1.57709793       8.17850881
Si       2.89303443       0.38933802       2.92510796
Si       6.01171833       2.35577398       2.32829288
Si       3.34433335       3.54353388       7.58169373
Si       5.24396448       0.44815136       3.55932729
Si       4.02388840       1.62694386       8.81272813
Si       0.99340331       3.48472054       6.94747441
Si       2.21347939       2.30592805       1.69407356
Si       3.06606174       0.99488178       4.45099067
Si       0.05262216       0.97155417       9.70439151
Si       3.17130605       2.93799012       6.05581103
Si       6.18474563       2.96131773       0.80241018
Si       3.07458449       0.05432963      -0.00000000
Si       0.04409940       1.91210632       5.25340085
14
Lattice="6.153120051060638 0.11793652192728242 -3.00640294915443e-13 0.09417109632538251 3.8159345736446024 4.7651652770886694e-14 5.149879256764127e-13 -1.4363372504082401e-13 10.483869169735106" Properties=species:S:1:pos:R:3 unique_starting_index=0 config_type=initial n_minim_iter=3 stress="-0.0005503489140797011 0.00026099575774161314 3.935626580041623e-15 0.00026099575774161314 -0.0027037539104341293 1.3763750706760444e-14 3.935626580041623e-15 1.3763750706760444e-14 0.00032506571148481283" pbc="T T T"
Si       0.22803513       1.57238571       8.15959184
Si       2.89561044       0.39454983       2.91765726
Si       6.01925602       2.36148538       2.32427733
Si       3.35168071       3.53932126       7.56621191
Si       5.24834621       0.45537024       3.55249266
Si       4.02841942       1.62950183       8.79442724
Si       0.99894494       3.47850086       6.93137651
Si       2.21887173       2.30436926       1.68944193
Si       3.07026601       0.99773842       4.44422099
Si       0.05337957       0.96919712       9.68615557
Si       3.17702514       2.93613267       6.03964818
Si       6.19391158       2.96467397       0.79771360
Si       3.07656003       0.05896826      -0.00000000
Si       0.04708555       1.90796729       5.24193458
14
Lattice="6.166604805551027 0.1271001114010046 -3.0117714747331695e-13 0.09980868713253882 3.830351972732251 4.757224791699995e-14 5.131868612206321e-13 -1.4313142508863205e-13 10.447204358925097" Properties=species:S:1:pos:R:3 unique_starting_index=0 config_type=initial n_minim_iter=4 stress="0.0011455425889176736 0.0005472510797360331 8.072115697830806e-15 0.0005472510797360331 -0.00026729622910359047 2.88762023062417e-14 8.072115697830806e-15 2.88762023062417e-14 -0.005063834627072828" pbc="T T T"
Si       0.23014907       1.57518084       8.13016653
Si       2.90305768       0.40354520       2.90656435
Si       6.03626443       2.38227124       2.31703783
Si       3.36335581       3.55390688       7.54064001
Si       5.26108910       0.46495354       3.54210137
Si       4.03872245       1.64087261       8.76570355
Si       1.00532439       3.49249854       6.90510299
Si       2.22769104       2.31657947       1.68150081
Si       3.07976098       1.00599373       4.43306841
Si       0.05344577       0.97273231       9.65667059
Si       3.18665252       2.95145835       6.01413595
Si       6.21296772       2.98471977       0.79053377
Si       3.08330240       0.06355006      -0.00000000
Si       0.04990434       1.91517599       5.22360218
14
Lattice="6.149340975101424 0.11680043432340192 -3.004702251009853e-13 0.09310628274575627 3.8331614461075474 4.793997387934612e-14 5.128171228783985e-13 -1.4302830879933683e-13 10.439677485996093" Properties=species:S:1:pos:R:3 unique_starting_index=0 config_type=initial n_minim_iter=5 stress="-0.0019490841296978404 0.00011767845726391928 3.5302068926400697e-15 0.00011767845726391928 0.0003003730815027586 1.2376713079681717e-14 3.5302068926400697e-15 1.2376713079681717e-14 -0.0036627726490201288" pbc="T T T"
Si       0.22571961       1.57216980       8.12443919
Si       2.89550402       0.40281114       2.90460045
Si       6.01672765       2.37779208       2.31523829
Si       3.34694324       3.54715074       7.53507704
Si       5.24610038       0.45777276       3.54156807
Si       4.02446422       1.63400862       8.76140681
Si       0.99634687       3.49218912       6.89810942
Si       2.21798304       2.31595326       1.67827067
Si       3.07136894       1.00143909       4.43274924
Si       0.04985469       0.97354185       9.65258798
Si       3.17107832       2.94852279       6.00692825
Si       6.19259257       2.97642003       0.78708951
Si       3.07467049       0.05840022      -0.00000000
Si       0.04655314       1.91658072       5.21983874
14
Lattice="6.16653072354927 0.09364606990155949 -3.0163184400007204e-13 0.07907736372694106 3.8261146303811775 4.853255696070336e-14 5.134340173916511e-13 -1.432003553392638e-13 10.4522358009504" Properties=species:S:1:pos:R:3 unique_starting_index=0 config_type=initial n_minim_iter=6 stress="0.0001952262534338383 -0.0009666997156966238 7.146862258518302e-16 -0.0009666997156966238 0.001043138407853529 1.4022958862787448e-15 7.146862258518302e-16 1.4022958862787448e-15 0.006656637405754386" pbc="T T T"
Si       0.21796513       1.56013588       8.13553319
Si       2.90483892       0.39974447       2.90941529
Si       6.02764296       2.35962482       2.31670262
Si       3.34076917       3.52001623       7.54282052
Si       5.26052724       0.44079454       3.54966151
Si       4.02880753       1.61273188       8.77577941
Si       0.98508085       3.47896616       6.90257429
Si       2.21680056       2.30702882       1.67645639
Si       3.08018099       0.98755933       4.44211498
Si       0.04262305       0.97232102       9.66823288
Si       3.16542710       2.93220137       6.01012082
Si       6.20298503       2.94743968       0.78400292
Si       3.08326536       0.04682304      -0.00000000
Si       0.03953868       1.91305732       5.22611790
14
Lattice="6.1719211714999895 0.10253744301892151 -3.017748174562568e-13 0.0847693476616202 3.8212895745498883 4.8186850301312e-14 5.146699664268411e-13 -1.4354505061924854e-13 10.477396402589658" Properties=species:S:1:pos:R:3 unique_starting_index=0 config_type=initial n_minim_iter=7 stress="2.4894850933557628e-05 -6.620894204056819e-05 -1.982997309409499e-15 -6.620894204056819e-05 0.001987454204427469 -8.357061700324768e-15 -1.982997309409499e-15 -8.357061700324768e-15 0.013701359087255996" pbc="T T T"
Si       0.21713534       1.54868702       8.15707879
Si       2.91120992       0.41322648       2.91838059
Si       6.03955518       2.37513999       2.32031761
Si       3.34548059       3.51060053       7.55901582
Si       5.26683725       0.45259161       3.56193389
Si       4.03342918       1.61185934       8.80063209
Si       0.98985327       3.47123541       6.91546251
Si       2.22326134       2.31196767       1.67676431
Si       3.08880035       0.98944377       4.45539815
Si       0.03954491       0.97246974       9.69409635
Si       3.16789017       2.93438325       6.02199826
Si       6.21714561       2.95135727       0.78330005
Si       3.08596059       0.05126872      -0.00000000
Si       0.04238467       1.91064479       5.23869820
14
Lattice="6.18141764101403 0.11513608607909247 -3.0206869538592975e-13 0.0928172414462767 3.8169455402837427 4.77320069834005e-14 5.157114413715988e-13 -1.4383550884191274e-13 10.498598034854048" Properties=species:S:1:pos:R:3 unique_starting_index=0 config_type=initial n_minim_iter=8 stress="0.00011744270226227474 0.0003348769529582847 9.214747707617536e-16 0.0003348769529582847 0.0009515708702181123 1.8140833914661894e-15 9.214747707617536e-16 1.8140833914661894e-15 0.006645209792180936" pbc="T T T"
Si       0.21669672       1.53685516       8.17503943
Si       2.92042073       0.42918566       2.92574041
Si       6.05753817       2.39522647       2.32355861
Si       3.35381416       3.50289597       7.57285763
Si       5.27783964       0.47032701       3.57249108
Si       4.04069544       1.61084989       8.82179009
Si       0.99639524       3.46175462       6.92610696
Si       2.23353944       2.32123173       1.67680794
Si       3.10102904       0.99305585       4.46675566
Si       0.03608840       0.97298496       9.71605468
Si       3.17320584       2.93902577       6.03184237
Si       6.23814648       2.95909667       0.78254336
Si       3.09070882       0.05756804      -0.00000000
Si       0.04640862       1.90847277       5.24929902
14
Lattice="6.203436990226633 0.13356410622520695 -3.028978561220386e-13 0.10471463495375338 3.8100681480016108 4.705336063402222e-14 5.169297545432042e-13 -1.4417528566084893e-13 10.523399611632739" Properties=species:S:1:pos:R:3 unique_starting_index=0 config_type=initial n_minim_iter=9 stress="-3.236636823860528e-05 0.0008424285316160109 -1.814203638211502e-15 0.0008424285316160109 -0.0007047098383269004 -4.73900405679417e-15 -1.814203638211502e-15 -4.73900405679417e-15 -0.0006950666234520417" pbc="T T T"
Si       0.21171095       1.50965080       8.19444924
Si       2.94236486       0.46216533       2.93274944
Si       6.09644068       2.43398146       2.32895037
Si       3.36578676       3.48146692       7.59065017
Si       5.30570045       0.50933116       3.58661274
Si       4.05181236       1.59604908       8.84831254
Si       1.00245118       3.43430110       6.93678687
Si       2.25633927       2.34758318       1.67508707
Si       3.12964115       0.99629878       4.48329151
Si       0.02443466       0.97551735       9.74499132
Si       3.17851048       2.94733348       6.04010810
Si       6.28371696       2.96811490       0.77840829
Si       3.10171850       0.06678205      -0.00000000
Si       0.05235732       1.90503407       5.26169981
14
Lattice="6.202237007888576 0.12247342316157314 -3.0299085802097506e-13 0.09763416736933898 3.8194698361838175 4.752997423930858e-14 5.152112761255108e-13 -1.4369601711236922e-13 10.488416010164327" Properties=species:S:1:pos:R:3 unique_starting_index=0 config_type=initial n_minim_iter=10 stress="-7.391713640197349e-05 -0.0009912351219720829 2.168252693287412e-16 -0.0009912351219720829 -0.0029598662757122 4.774151545530504e-15 2.168252693287412e-16 4.774151545530504e-15 -0.025660352987353988" pbc="T T T"
Si       0.20911683       1.51639443       8.16271319
Si       2.94081875       0.45457720       2.91850519
Si       6.09075434       2.42554883       2.32570282
Si       3.35905242       3.48736606       7.56991082
Si       5.30586204       0.50440770       3.56995112
Si       4.04631055       1.58903735       8.81415912
Si       0.99400913       3.43753556       6.91846489
Si       2.25356062       2.35290591       1.67425689
Si       3.12671421       0.99323489       4.46698155
Si       0.02322137       0.97773674       9.71118956
Si       3.17315696       2.94870837       6.02143446
Si       6.27664980       2.96420652       0.77722645
Si       3.10111850       0.06123671      -0.00000000
Si       0.04881708       1.90973492       5.24420801
14
Lattice="6.206484488276965 0.11386673630019198 -3.033174181496455e-13 0.09232433993051396 3.820501225914754 4.780493373688218e-14 5.147247081040542e-13 -1.4356031764282158e-13 10.478510799992053" Properties=species:S:1:pos:R:3 unique_starting_index=0 config_type=initial n_minim_iter=11 stress="1.1855687983438287e-06 -0.000649023298326511 6.19092651925323e-15 -0.000649023298326511 -0.0010522786459824646 1.8470884524653886e-14 6.19092651925323e-15 1.8470884524653886e-14 -0.0045050986293717794" pbc="T T T"
Si       0.20426303       1.51040822       8.15174328
Si       2.94514139       0.45677577       2.91248788
Si       6.09454580       2.42395975       2.32676752
Si       3.35366744       3.47759220       7.56602292
Si       5.31186286       0.50490594       3.56494807
Si       4.04402604       1.57614477       8.80420347
Si       0.98694597       3.42946202       6.91356273
Si       2.25478278       2.35822319       1.67430733
Si       3.13119252       0.98781484       4.46416377
Si       0.01821189       0.97936914       9.70341917
Si       3.16761631       2.94655312       6.01434703
Si       6.28059693       2.95499883       0.77509163
Si       3.10324224       0.05693337      -0.00000000
Si       0.04616217       1.91025061       5.23925540
14
Lattice="6.208209411558853 0.1183256765170612 -3.0334106048429717e-13 0.09507069063643178 3.823412069138534 4.7709907523150695e-14 5.146880547734105e-13 -1.4355009549424066e-13 10.477764645319928" Properties=species:S:1:pos:R:3 unique_starting_index=0 config_type=initial n_minim_iter=12 stress="-6.899661594065472e-05 -4.7140896318674385e-05 1.0638958190340981e-14 -4.7140896318674385e-05 0.00010162356371762001 2.9476546927744665e-14 1.0638958190340981e-14 2.9476546927744665e-14 0.0022613394421773575" pbc="T T T"
Si       0.20329734       1.50872415       8.14902910
Si       2.94834271       0.46214473       2.91014678
Si       6.09998276       2.43301360       2.32873554
Si       3.35493739       3.47959302       7.56761787
Si       5.31475496       0.51303015       3.56232493
Si       4.04509450       1.57616440       8.80120725
Si       0.98852514       3.42870760       6.91543971
Si       2.25818560       2.36557334       1.67655739
Si       3.13439562       0.99038112       4.46295644
Si       0.01724443       0.98048775       9.70183876
Si       3.16888448       2.95135662       6.01480821
Si       6.28603567       2.96125000       0.77592589
Si       3.10410471       0.05916284      -0.00000000
Si       0.04753535       1.91170603       5.23888232
14
Lattice="6.214500630591925 0.12488348657389517 -3.035602530303949e-13 0.0990821445145057 3.832306485638528 4.7634714519212185e-14 5.140178308147148e-13 -1.4336317653327499e-13 10.464120708920083" Properties=species:S:1:pos:R:3 unique_starting_index=0 config_type=initial n_minim_iter=13 stress="-0.00010313889812790873 0.0009223555483019504 2.146365089843286e-14 0.0009223555483019504 0.0018336497460990338 5.966713428373221e-14 2.146365089843286e-14 5.966713428373221e-14 0.009715280892760941" pbc="T T T"
Si       0.19921542       1.50640955       8.13228075
Si       2.95757596       0.47218544       2.90022039
Si       6.11436735       2.45078043       2.33183996
Si       3.35600681       3.48500453       7.56390032
Si       5.32083822       0.52503854       3.55030916
Si       4.05045379       1.57843993       8.78236951
Si       0.99274455       3.43215143       6.91381155
Si       2.26312898       2.37875004       1.68175120
Si       3.14096716       0.99714852       4.45465607
Si       0.01582422       0.98144647       9.68671642
Si       3.17261561       2.96004145       6.00946464
Si       6.29775855       2.97574350       0.77740429
Si       3.10725032       0.06244174      -0.00000000
Si       0.04954107       1.91615324       5.23206035
14
Lattice="6.231999896848418 0.10962241696247822 -3.04628935288514e-13 0.08981720242214171 3.8337168046381693 4.81091481971967e-14 5.130792672721373e-13 -1.4310142035184493e-13 10.445014110552176" Properties=species:S:1:pos:R:3 unique_starting_index=0 config_type=initial n_minim_iter=14 stress="5.751950351887902e-05 6.23122446847691e-05 2.5123344772410216e-14 6.23122446847691e-05 0.0004981472252740277 7.292020499489419e-14 2.5123344772410216e-14 7.292020499489419e-14 0.003198655408927569" pbc="T T T"
Si       0.18638774       1.49516907       8.11295933
Si       2.97452081       0.47650054       2.89045228
Si       6.13542936       2.44817015       2.33205478
Si       3.34729629       3.46683868       7.55456183
Si       5.33140966       0.51467149       3.54028994
Si       4.06149878       1.56662054       8.76279700
Si       0.99040744       3.42866773       6.90472417
Si       2.26031832       2.37671868       1.68221711
Si       3.15148247       0.99417737       4.44790979
Si       0.00942608       0.97749224       9.67041685
Si       3.17033463       2.94916185       5.99710432
Si       6.31239102       2.96584698       0.77459726
Si       3.11599995       0.05481121      -0.00000000
Si       0.04490860       1.91685840       5.22250706
14
Lattice="6.233986123084446 0.11049695784770486 -3.0471452164351076e-13 0.09039993742315133 3.833128258873294 4.80724596678113e-14 5.130715642111603e-13 -1.4309927265691552e-13 10.444857320595883" Properties=species:S:1:pos:R:3 unique_starting_index=0 config_type=initial n_minim_iter=15 stress="-4.690749971998539e-05 -5.520433878927078e-05 2.1179155392133162e-14 -5.520433878927078e-05 -9.563835055769475e-05 6.186165451980378e-14 2.1179155392133162e-14 6.186165451980378e-14 -0.0007988958474121491" pbc="T T T"
Si       0.18562125       1.49429861       8.11243231
Si       2.97657178       0.47751400       2.89000365
Si       6.13876481       2.44932661       2.33242501
Si       3.34781428       3.46611122       7.55485367
Si       5.33299591       0.51692762       3.54009979
Si       4.06318324       1.56538194       8.76252845
Si       0.99139015       3.42669759       6.90475753
Si       2.26120282       2.37824327       1.68232887
Si       3.15334008       0.99451568       4.44759552
Si       0.00885295       0.97729693       9.67002418
Si       3.17104598       2.94910954       5.99726180
Si       6.31553311       2.96632828       0.77483314
Si       3.11699306       0.05524848      -0.00000000
Si       0.04519997       1.91656413       5.22242866
14
Lattice="6.238113670868957 0.1110857789245266 -3.0490920838600456e-13 0.09083416811128613 3.8326250372780204 4.804423493774191e-14 5.130272186238963e-13 -1.4308690569900623e-13 10.443954588766276" Properties=species:S:1:pos:R:3 unique_starting_index=0 config_type=initial n_minim_iter=16 stress="-9.559839285207337e-05 -8.714150821739212e-05 1.8094610410918212e-14 -8.714150821739212e-05 -0.00033828029739427673 5.2997024488511646e-14 1.8094610410918212e-14 5.2997024488511646e-14 -0.0018710604447966853" pbc="T T T"
Si       0.18410185       1.49261695       8.11101166
Si       2.98037207       0.47923846       2.88903437
Si       6.14484599       2.45109387       2.33294293
Si       3.34857577       3.46447236       7.55492022
Si       5.33613117       0.51972729       3.53987446
Si       4.06645642       1.56321390       8.76185176
Si       0.99281667       3.42398353       6.90408013
Si       2.26249141       2.38049692       1.68210283
Si       3.15676243       0.99462061       4.44717623
Si       0.00771148       0.97723480       9.66915352
Si       3.17218540       2.94909020       5.99677836
Si       6.32123635       2.96647602       0.77480106
Si       3.11905684       0.05554289      -0.00000000
Si       0.04541708       1.91631252       5.22197729
14
Lattice="6.24363426037397 0.11199485915170294 -3.0516793697639984e-13 0.09147079318714084 3.833070116678153 4.8019060253696404e-14 5.127562607612872e-13 -1.4301133911675887e-13 10.438438662262714" Properties=species:S:1:pos:R:3 unique_starting_index=0 config_type=initial n_minim_iter=17 stress="-3.9567469381071767e-05 -7.450970128510098e-05 2.3446356179792347e-14 -7.450970128510098e-05 -0.00028422429626988847 6.87401502040859e-14 2.3446356179792347e-14 6.87401502040859e-14 -0.0019568485740615446" pbc="T T T"
Si       0.18285129       1.49263777       8.10562992
Si       2.98470124       0.47989472       2.88641059
Si       6.15225377       2.45242721       2.33280874
Si       3.35040381       3.46517026       7.55202807
Si       5.33944823       0.52186408       3.53834677
Si       4.07173856       1.56266326       8.75756610
Si       0.99565682       3.42320089       6.90009189
Si       2.26336650       2.38240171       1.68087256
Si       3.16038774       0.99512543       4.44468584
Si       0.00716479       0.97740706       9.66390517
Si       3.17471732       2.94993955       5.99375283
Si       6.32794026       2.96765792       0.77453349
Si       3.12181713       0.05599743      -0.00000000
Si       0.04573540       1.91653506       5.21921933
14
Lattice="6.2428881101262075 0.11194175068829092 -3.051320137087516e-13 0.09142061972125655 3.833435532951631 4.802653099958527e-14 5.126691501526305e-13 -1.4298704602579595e-13 10.43666537516926" Properties=species:S:1:pos:R:3 unique_starting_index=0 config_type=initial n_minim_iter=18 stress="2.331775481464537e-05 5.792295622461962e-05 2.77964392260668e-14 5.792295622461962e-05 0.00015656144105855843 8.153098639355139e-14 2.77964392260668e-14 8.153098639355139e-14 0.0011438542127254628" pbc="T T T"
Si       0.18369254       1.49433975       8.10414800
Si       2.98346183       0.47834889       2.88581531
Si       6.15061619       2.45103753       2.33251738
Si       3.35084690       3.46702839       7.55085007
Si       5.33809605       0.52006492       3.53812045
Si       4.07194642       1.56456547       8.75645314
Si       0.99621268       3.42531237       6.89854492
Si       2.26236231       2.38081181       1.68021223
Si       3.15914362       0.99503760       4.44369624
Si       0.00801075       0.97765104       9.66202893
Si       3.17516511       2.95033969       5.99296914
Si       6.32629798       2.96772624       0.77463645
Si       3.12144406       0.05597088      -0.00000000
Si       0.04571031       1.91671777       5.21833269
14
Lattice="6.24337097919298 0.11092793904846115 -3.0516962434534596e-13 0.0907916605437928 3.833740890193302 4.806160997414818e-14 5.125345483708756e-13 -1.4294950810251433e-13 10.433925296644059" Properties=species:S:1:pos:R:3 unique_starting_index=0 config_type=initial n_minim_iter=19 stress="-1.3987453804838495e-05 -4.055168105625018e-05 2.4167237788466975e-14 -4.055168105625018e-05 -6.926163825153435e-06 7.102166990460325e-14 2.4167237788466975e-14 7.102166990460325e-14 -0.0006384756841365561" pbc="T T T"
Si       0.18361252       1.49452291       8.10108688
Si       2.98346880       0.47781150       2.88412423
Si       6.15055012       2.45014592       2.33283841
Si       3.35069384       3.46685733       7.54980106
Si       5.33812143       0.51890407       3.53754828
Si       4.07233087       1.56435828       8.75451093
Si       0.99604121       3.42576476       6.89637702
Si       2.26183177       2.38031055       1.67941437
Si       3.15935980       0.99435440       4.44198027
Si       0.00772152       0.97798001       9.65894292
Si       3.17480284       2.95031443       5.99194503
Si       6.32644112       2.96668882       0.77498238
Si       3.12168549       0.05546397      -0.00000000
Si       0.04539583       1.91687045       5.21696265
14
Lattice="6.244574620175472 0.11046963547828868 -3.0523502940111893e-13 0.0905311647801456 3.833328981308749 4.8068762547328236e-14 5.125290603883868e-13 -1.4294797835241545e-13 10.43381360790815" Properties=species:S:1:pos:R:3 unique_starting_index=0 config_type=initial n_minim_iter=20 stress="-2.4627353542881263e-05 -2.6985935396320236e-05 2.2957105642977752e-14 -2.6985935396320236e-05 -3.804404282973122e-05 6.700018896935123e-14 2.2957105642977752e-14 6.700018896935123e-14 -0.00043904262694573854" pbc="T T T"
Si       0.18343618       1.49373803       8.10016872
Si       2.98411671       0.47816127       2.88326191
Si       6.15166961       2.45006058       2.33364489
Si       3.35098907       3.46563734       7.55055169
Si       5.33894052       0.51867921       3.53812824
Si       4.07318699       1.56368974       8.75503504
Si       0.99616527       3.42511941       6.89568537
Si       2.26191879       2.38010888       1.67877857
Si       3.16038810       0.99361793       4.44143697
Si       0.00716480       0.97828138       9.65834378
Si       3.17471769       2.95018069       5.99237663
Si       6.32794099       2.96551724       0.77546983
Si       3.12228731       0.05523482      -0.00000000
Si       0.04526558       1.91666449       5.21690680
14
Lattice="6.245115080272562 0.11049766931315064 -3.0526119469261965e-13 0.09055948002725313 3.833151413373329 4.8064938745860583e-14 5.125435178514621e-13 -1.4295201120201653e-13 10.43410795496365" Properties=species:S:1:pos:R:3 unique_starting_index=0 config_type=initial n_minim_iter=21 stress="-3.1784705457845252e-06 -4.0861549726165685e-06 2.0282392294529503e-14 -4.0861549726165685e-06 -1.1057918780765295e-05 5.929820961244635e-14 2.0282392294529503e-14 5.929820961244635e-14 -6.1258690841633e-05" pbc="T T T"
Si       0.18340919       1.49338048       8.10018641
Si       2.98442809       0.47844406       2.88313243
Si       6.15226537       2.45026860       2.33392154
Si       3.35124647       3.46520503       7.55097552
Si       5.33939071       0.51884189       3.53846117
Si       4.07356165       1.56348032       8.75551515
Si       0.99628385       3.42480720       6.89564678
Si       2.26211291       2.38016876       1.67859280
Si       3.16083094       0.99346995       4.44144423
Si       0.00700634       0.97835459       9.65849821
Si       3.17484362       2.95017914       5.99266373
Si       6.32866822       2.96529449       0.77560975
Si       3.12255754       0.05524883      -0.00000000
Si       0.04527974       1.91657571       5.21705398
