22
Lattice="8.493631053467546 0.5141814056168366 0.042194095036004464 -3.109570421353762 7.920651664159464 -0.042194095036005796 -2.656463609292874 -4.240119213662935 6.882769898695966" Properties=species:S:1:pos:R:3 unique_starting_index=6 config_type=initial n_minim_iter=1 energy=-3624.39512226111 free_energy=-3624.39512226111 pbc="T T T"
Si      -2.45467624       4.92089612       5.58007268
Si       2.26894756       1.13343039       4.75894204
Si       5.76574160       2.93667207      -0.18176376
Si      -0.12018421      -0.60452921       3.60279047
Si       5.90998405      -1.19068926       2.16602194
Si      -0.26906132       3.52579048       1.26050312
Si       2.22985660       3.83118355       3.27997943
Si      -2.42021994       2.22610132       7.06453366
Si       0.12352506       5.33016511       1.70682972
Si       1.49221549       5.51003434       2.76374382
Si       1.57513020       4.05234757       1.51553461
Si       1.81275759       5.65666788       0.85263934
Si       1.71318147      -0.56678458       4.11902608
Si       2.12627203      -1.88398714       5.17594017
Si       1.71123228      -0.21430077       6.03013056
Si       0.35607397      -1.10528695       5.36723528
Si      -1.35192187       1.77531249       1.04966813
Si       3.19859843       2.98170404       4.78801568
Si      -1.29856352      -0.08347414       2.09475421
Si      -3.58655005       3.20170393       5.79090767
Si       2.69203032       4.21741654      -0.00000000
Si       2.91858372      -1.86296890       3.46248199
22
Lattice="8.569966831702098 0.6843443741892175 0.09940138142997097 -2.9873622404919242 8.06153369794121 -0.09940138142997186 -2.707514622118189 -4.426421767797468 6.855559368729416" Properties=species:S:1:pos:R:3 unique_starting_index=6 config_type=initial n_minim_iter=2 stress="-0.07216427318235998 0.02848638901954744 0.038605826913812195 0.02848638901954744 -0.045719852522153014 -0.024642587605158063 0.038605826913812195 -0.024642587605158063 -0.09034750514572448" pbc="T T T"
Si      -2.34272153       5.04842066       5.48519917
Si       2.33500808       1.11116553       4.79039469
Si       5.82255838       3.10201830      -0.18045470
Si      -0.06523158      -0.62233022       3.61665173
Si       5.88726083      -1.15628233       2.16456605
Si      -0.12936745       3.63560876       1.27095882
Si       2.33806711       3.99827643       3.23890763
Si      -2.34521398       2.16094811       7.03601406
Si       0.26842235       5.46027911       1.67823075
Si       1.61390929       5.64753000       2.71161458
Si       1.64360032       4.20871228       1.48450018
Si       1.94672393       5.80886354       0.87905589
Si       1.73561117      -0.58481645       4.14394478
Si       2.13223712      -1.88408003       5.17732862
Si       1.74182873      -0.21501186       5.97650348
Si       0.41802697      -1.16365134       5.37105918
Si      -1.34946564       1.82422016       1.01812701
Si       3.29661287       3.08755373       4.73656107
Si      -1.29486897      -0.13630793       2.11899830
Si      -3.47206516       3.17910228       5.73803097
Si       2.79130230       4.37293904      -0.00000000
Si       2.93122610      -1.87103869       3.47748037
22
Lattice="8.642353559018881 0.7026579192584331 0.0835016708077534 -3.0012269042324444 8.134902596828942 -0.08350167080775463 -2.7501777788068495 -4.463708243942006 6.906721843069387" Properties=species:S:1:pos:R:3 unique_starting_index=6 config_type=initial n_minim_iter=3 stress="0.013002524055288298 0.003063489236165886 -0.009191669884062075 0.003063489236165886 0.015846415500907766 0.005867159143134864 -0.009191669884062075 0.005867159143134864 0.011047062404209359" pbc="T T T"
Si      -2.36604764       5.11804745       5.53012654
Si       2.34469991       1.11476059       4.83161925
Si       5.86639012       3.13595317      -0.19551223
Si      -0.06475971      -0.62002573       3.64912617
Si       5.91616489      -1.16495068       2.15860426
Si      -0.11291941       3.67984720       1.29309363
Si       2.35581765       4.05407063       3.25759567
Si      -2.37555031       2.17770649       7.10223407
Si       0.28136120       5.51577283       1.69794774
Si       1.62689802       5.70452420       2.73056630
Si       1.65447706       4.26024577       1.49367006
Si       1.97099602       5.86393192       0.89761500
Si       1.73917630      -0.58632595       4.17615554
Si       2.13446224      -1.88626651       5.20877410
Si       1.73889654      -0.20709755       6.00910684
Si       0.41752812      -1.16937558       5.41305178
Si      -1.36691686       1.84878755       1.02869277
Si       3.31528785       3.12672412       4.75979527
Si      -1.30986499      -0.14016383       2.14692657
Si      -3.49896180       3.20969880       5.79452740
Si       2.82056333       4.41878026      -0.00000000
Si       2.94608789      -1.88052516       3.49511175
22
Lattice="8.737472045137327 0.62929979984891 0.14348088044529786 -3.107813066729649 8.190295105788953 -0.14348088044529952 -2.693886460971731 -4.486996917425568 7.026368702189349" Properties=species:S:1:pos:R:3 unique_starting_index=6 config_type=initial n_minim_iter=4 stress="0.003941643490407156 -0.03791170571425092 0.03150553888151877 -0.03791170571425092 -0.031252465989931415 -0.020110383949782207 0.03150553888151877 -0.020110383949782207 0.028141156955630887" pbc="T T T"
Si      -2.38150487       5.20484521       5.55108283
Si       2.38726365       0.99801761       4.95132866
Si       5.86309017       3.08721711      -0.19286485
Si       0.00089081      -0.62373161       3.74533244
Si       5.94376259      -1.27214064       2.21852092
Si      -0.07797634       3.73447382       1.33180498
Si       2.36963990       4.07080460       3.28103625
Si      -2.36207585       2.13090589       7.21923355
Si       0.25442834       5.53242573       1.73041589
Si       1.58830671       5.70441063       2.76222845
Si       1.67152560       4.27630753       1.48167339
Si       1.95742069       5.82036760       0.89188644
Si       1.81161219      -0.64466680       4.26414024
Si       2.21719780      -1.92697356       5.29595280
Si       1.76138816      -0.26104107       6.13448226
Si       0.48121058      -1.17043806       5.54469531
Si      -1.42954388       1.88506572       1.01966026
Si       3.35417472       3.09295680       4.80713351
Si      -1.30057444      -0.14239665       2.21923518
Si      -3.48998341       3.20027032       5.86322756
Si       2.81482949       4.40979746      -0.00000000
Si       3.02179279      -1.92884855       3.58492479
22
Lattice="8.823171623189817 0.8232561441547748 0.009557630097164295 -2.96796535097609 8.349688008935177 -0.009557630097166623 -2.9195462363312195 -4.591614897575343 6.9942492038625526" Properties=species:S:1:pos:R:3 unique_starting_index=6 config_type=initial n_minim_iter=5 stress="-0.0021080619470576056 0.014311426811230361 0.01872853034438863 0.014311426811230361 0.011177489639847634 -0.011954657797069678 0.01872853034438863 -0.011954657797069678 -0.011243231327579999" pbc="T T T"
Si      -2.36610021       5.42793778       5.58400263
Si       2.33957670       1.04419071       4.92445425
Si       5.92833234       3.27886794      -0.27894741
Si      -0.03246704      -0.58707513       3.76133587
Si       5.86576084      -1.20661723       2.07935258
Si       0.03208274       3.89714727       1.40068894
Si       2.41682099       4.30471153       3.23291333
Si      -2.44136622       2.16615420       7.27319661
Si       0.34858006       5.71993729       1.81011180
Si       1.63437941       5.92471098       2.78375595
Si       1.78541137       4.47270857       1.46738718
Si       2.07296802       5.97483544       0.90156269
Si       1.76637912      -0.61474429       4.21049325
Si       2.12198149      -1.86724546       5.18413740
Si       1.62719154      -0.19581798       6.09268651
Si       0.38574914      -1.08906750       5.52686202
Si      -1.46334051       1.93886533       1.05038979
Si       3.36534896       3.30225681       4.71757970
Si      -1.34109258      -0.14876022       2.27666950
Si      -3.51276743       3.24704046       5.93430178
Si       2.92760314       4.58647208      -0.00000000
Si       2.95181269      -1.88417937       3.50190341
22
Lattice="8.79741429123978 0.7914440820295221 -0.05683516609405448 -2.9859763085504905 8.312931338069898 0.05683516609405154 -2.9536256794189453 -4.521608265128617 6.989654227885087" Properties=species:S:1:pos:R:3 unique_starting_index=6 config_type=initial n_minim_iter=6 stress="-0.015732718947375973 -0.00898309465166842 -0.018052358011247487 -0.00898309465166842 -0.024071885193966414 0.011523048444602724 -0.018052358011247487 0.011523048444602724 -0.009998691544386274" pbc="T T T"
Si      -2.41532029       5.44699139       5.62000474
Si       2.28908008       1.04053424       4.90980157
Si       5.89675353       3.23980481      -0.31136233
Si      -0.05613373      -0.56100140       3.76234151
Si       5.82386736      -1.21576519       2.02301749
Si       0.01799745       3.89377389       1.42648465
Si       2.37258759       4.29565996       3.22731272
Si      -2.49758278       2.19107095       7.30101656
Si       0.32229176       5.69707047       1.84416008
Si       1.57989221       5.90263124       2.79361143
Si       1.76263980       4.46314915       1.47506931
Si       2.03365196       5.92751959       0.91561384
Si       1.73521220      -0.60345636       4.19604279
Si       2.07822844      -1.83071102       5.14549414
Si       1.56674683      -0.18139385       6.07404038
Si       0.35258601      -1.04374057       5.51458491
Si      -1.48470716       1.94004383       1.07057281
Si       3.31016481       3.30168836       4.69434033
Si      -1.35245419      -0.12904785       2.29531389
Si      -3.55479315       3.26140590       5.97591658
Si       2.90571899       4.55218771      -0.00000000
Si       2.92189431      -1.86508209       3.46640953
22
Lattice="8.856450741350955 0.8008713274719282 -0.04704643428027836 -3.0022806270978077 8.370449549056234 0.04704643428027567 -2.966740657112956 -4.560347767229177 7.034344752674679" Properties=species:S:1:pos:R:3 unique_starting_index=6 config_type=initial n_minim_iter=7 stress="-0.0004355677600467366 -0.006356581634318654 -0.005423994524842986 -0.006356581634318654 -0.006336495342805246 0.0034622043078305926 -0.005423994524842986 0.0034622043078305926 0.0036219200377878174" pbc="T T T"
Si      -2.40781460       5.50216903       5.63379568
Si       2.30929457       1.01477341       4.94295165
Si       5.92543431       3.26242069      -0.30562069
Si      -0.04991605      -0.55878245       3.79502487
Si       5.83791177      -1.23758758       2.04434666
Si       0.03546718       3.94259137       1.44759550
Si       2.40159970       4.33043989       3.23931988
Si      -2.50225904       2.18786810       7.33996543
Si       0.34995184       5.73518112       1.87683078
Si       1.56979412       5.94753247       2.79080151
Si       1.79792411       4.53282922       1.48718292
Si       2.02435707       5.93547208       0.92336307
Si       1.76707647      -0.63245120       4.24354323
Si       2.08803648      -1.82831615       5.15751397
Si       1.56475848      -0.22521618       6.11098167
Si       0.38781925      -1.02113887       5.54716183
Si      -1.52017856       1.95267560       1.07320790
Si       3.34654296       3.33558876       4.70233498
Si      -1.35013552      -0.12051782       2.33200977
Si      -3.55782071       3.25332836       6.00818328
Si       2.92708506       4.58566044      -0.00000000
Si       2.94485504      -1.87973822       3.49364916
22
Lattice="8.851194974376261 0.832933643042487 0.0021140505707476823 -2.970985645148913 8.379181059295398 -0.0021140505707504882 -2.938322079675167 -4.607195197681302 7.0126636283156465" Properties=species:S:1:pos:R:3 unique_starting_index=6 config_type=initial n_minim_iter=8 stress="-0.0028319979457977398 0.0030142387225110343 0.0010011346129843196 0.0030142387225110343 -3.3826626371305475e-05 -0.0006390368858057417 0.0010011346129843196 -0.0006390368858057417 -0.004756024894264704" pbc="T T T"
Si      -2.34283583       5.47905518       5.58380902
Si       2.33784531       1.00689369       4.92490417
Si       5.94409198       3.28094930      -0.26734938
Si      -0.04152223      -0.56587087       3.76758611
Si       5.84190692      -1.22979316       2.08987350
Si       0.04685811       3.95368331       1.42674055
Si       2.44609398       4.32901558       3.24507752
Si      -2.46488922       2.16574502       7.28001301
Si       0.39196356       5.74102093       1.83013956
Si       1.62037958       5.94000168       2.75853121
Si       1.82626052       4.55037249       1.51097428
Si       2.01418266       5.96375075       0.90891691
Si       1.76736691      -0.63658553       4.25413242
Si       2.10406445      -1.83459806       5.18252407
Si       1.62311091      -0.26938655       6.10374671
Si       0.42022041      -1.03489767       5.50168934
Si      -1.53630858       1.91772201       1.06096194
Si       3.41120031       3.36827423       4.68586418
Si      -1.31929131      -0.09495648       2.32679945
Si      -3.52302091       3.18586562       5.94958763
Si       2.94010466       4.60605736      -0.00000000
Si       2.95643645      -1.88713077       3.50738884
22
Lattice="8.808079948294875 0.8497248773130684 -0.04762513399777124 -2.937602963127879 8.347142838942043 0.04762513399776637 -2.9753818940427985 -4.572809817242781 6.967286836064503" Properties=species:S:1:pos:R:3 unique_starting_index=6 config_type=initial n_minim_iter=9 stress="-0.0011328429719796589 0.012043399552679027 -0.006784583038210277 0.012043399552679027 0.010047258645385334 0.00433068516462308 -0.006784583038210277 0.00433068516462308 -0.008820295551756719" pbc="T T T"
Si      -2.35472326       5.46854890       5.58874864
Si       2.29877278       1.03919872       4.87953225
Si       5.95115563       3.26551921      -0.26653800
Si      -0.08404523      -0.53853626       3.70795317
Si       5.80748463      -1.20045643       2.04012944
Si       0.03865603       3.94082463       1.42616332
Si       2.44199865       4.32109170       3.25933366
Si      -2.51891887       2.20004117       7.23382483
Si       0.39287821       5.74399643       1.83699919
Si       1.60325089       5.92591655       2.75936119
Si       1.81166307       4.54087976       1.51209509
Si       2.01203661       5.96247180       0.91611383
Si       1.72474260      -0.62366685       4.20792564
Si       2.06931849      -1.79813032       5.13028764
Si       1.58579454      -0.23748621       6.05117300
Si       0.38069596      -1.01774954       5.45519175
Si      -1.55674024       1.88119572       1.07904625
Si       3.40213215       3.41290100       4.64291796
Si      -1.31205444      -0.05000778       2.32436888
Si      -3.55122724       3.15430200       5.93586572
Si       2.93523849       4.59843386      -0.00000000
Si       2.91634903      -1.86154247       3.45983085
22
Lattice="8.78471099095453 0.8350215013478038 -0.06782160064921224 -2.9411009827036203 8.319755592074234 0.06782160064920868 -2.9789723428370785 -4.540897911359515 6.955499824674556" Properties=species:S:1:pos:R:3 unique_starting_index=6 config_type=initial n_minim_iter=10 stress="0.0011793501757242028 0.005808107266153182 -0.009646936986217833 0.005808107266153182 0.006571119265196851 0.006157761892658985 -0.009646936986217833 0.006157761892658985 -0.002528035765097809" pbc="T T T"
Si      -2.37120581       5.45181886       5.59691008
Si       2.28088349       1.04824866       4.86422770
Si       5.94346936       3.23256111      -0.26537645
Si      -0.09830927      -0.52118708       3.68491213
Si       5.79626569      -1.19566426       2.02345052
Si       0.02333196       3.92335512       1.42641135
Si       2.43328325       4.30527904       3.27058769
Si      -2.54916801       2.21110532       7.22087627
Si       0.37678542       5.72939887       1.83126829
Si       1.59249369       5.89841264       2.76507193
Si       1.80366422       4.52524082       1.50612071
Si       1.99961381       5.93190599       0.91444175
Si       1.70073361      -0.61309190       4.19042789
Si       2.05926261      -1.78696123       5.12423153
Si       1.55970949      -0.22971116       6.04105807
Si       0.36628780      -0.99967727       5.44937911
Si      -1.57976551       1.84401888       1.09899514
Si       3.41201628       3.42884592       4.63172535
Si      -1.30534339      -0.00241738       2.32377447
Si      -3.58234305       3.12228946       5.92432628
Si       2.92180500       4.57738855      -0.00000000
Si       2.90286932      -1.85293820       3.44383911
22
Lattice="8.758531801347456 0.786634710777478 -0.055805033426218266 -2.973968486774897 8.275638037220139 0.05580503342621375 -2.93932003212944 -4.501111184395568 6.959467187910456" Properties=species:S:1:pos:R:3 unique_starting_index=6 config_type=initial n_minim_iter=11 stress="0.012767716644313129 -0.00857521703744829 0.01709080381085997 -0.00857521703744829 0.0048071904282780895 -0.01090927623676658 0.01709080381085997 -0.01090927623676658 0.018241381907829427" pbc="T T T"
Si      -2.38484636       5.41547266       5.59641852
Si       2.27555143       1.03160802       4.86818625
Si       5.92243692       3.15801543      -0.23974132
Si      -0.09941477      -0.49760777       3.66649920
Si       5.79688976      -1.21610677       2.03547590
Si       0.00289174       3.89134924       1.41885370
Si       2.43574198       4.26148595       3.29296798
Si      -2.56827756       2.20042954       7.19920851
Si       0.33267395       5.69863203       1.82692121
Si       1.56383471       5.84543519       2.78570029
Si       1.78191821       4.47144369       1.51366034
Si       1.96490555       5.89154400       0.90382658
Si       1.70439848      -0.62160477       4.17376689
Si       2.08957943      -1.80013930       5.13254598
Si       1.57736410      -0.23839973       6.05564060
Si       0.36629870      -1.00226481       5.44580684
Si      -1.64150402       1.73673031       1.14710271
Si       3.49970356       3.45447377       4.64137829
Si      -1.27936306       0.12769610       2.31808889
Si      -3.64688171       3.01678825       5.86816950
Si       2.89228166       4.53113638      -0.00000000
Si       2.90960588      -1.85723823       3.45183108
22
Lattice="8.749485992268514 0.831232505804719 -0.08901505183244118 -2.9297074909001806 8.286209424421582 0.08901505183243755 -2.9849209028163752 -4.510827312557647 6.9278467395920424" Properties=species:S:1:pos:R:3 unique_starting_index=6 config_type=initial n_minim_iter=12 stress="-0.005208687441260021 -0.003438658438872896 0.007770511149605688 -0.003438658438872896 -0.008400855118296628 -0.004960015548127726 0.007770511149605688 -0.004960015548127726 -0.0030137501911670717" pbc="T T T"
Si      -2.37280881       5.45080720       5.58835272
Si       2.25379451       1.04130123       4.84384112
Si       5.92971904       3.17988678      -0.23900115
Si      -0.12245171      -0.47059888       3.64050829
Si       5.76019536      -1.19687879       1.99499056
Si       0.02853414       3.91799962       1.42850907
Si       2.45955372       4.29741448       3.28733845
Si      -2.59710586       2.20652688       7.16684788
Si       0.35091801       5.71968587       1.83173945
Si       1.58015854       5.87996371       2.78164997
Si       1.80387993       4.49434884       1.51288768
Si       1.98402620       5.92006293       0.89763867
Si       1.68324419      -0.60197725       4.14619676
Si       2.05539445      -1.78444308       5.09610728
Si       1.54958129      -0.21876547       6.03020807
Si       0.33222777      -0.98241704       5.41495906
Si      -1.68670457       1.67410516       1.18081274
Si       3.55921996       3.54678467       4.60535265
Si      -1.26629046       0.21082893       2.32249408
Si      -3.68599572       2.95027799       5.83604905
Si       2.90988925       4.55872097      -0.00000000
Si       2.88228254      -1.83979740       3.41941584
22
Lattice="8.805987074153412 0.8607537031531204 -0.07879872107122946 -2.9267180997265 8.349887810766225 0.07879872107122626 -3.0060546221621625 -4.562923944740767 6.9595887241402545" Properties=species:S:1:pos:R:3 unique_starting_index=6 config_type=initial n_minim_iter=13 stress="-0.006579929743139038 -0.002393300452928393 0.012892249972284147 -0.002393300452928393 -0.008801673043055144 -0.008229286218338024 0.012892249972284147 -0.008229286218338024 -0.005052258985006817" pbc="T T T"
Si      -2.36299331       5.52637299       5.58816906
Si       2.27333780       1.01258189       4.88644155
Si       5.94344211       3.20847187      -0.24257388
Si      -0.09802025      -0.45795194       3.67606291
Si       5.76128471      -1.21381874       1.99434845
Si       0.07479950       3.97029901       1.45021838
Si       2.49909587       4.36600262       3.28352581
Si      -2.59808903       2.17891260       7.20216260
Si       0.38534416       5.77651066       1.84120646
Si       1.59593149       5.92226931       2.78320586
Si       1.84755129       4.55071584       1.51775231
Si       2.00120977       5.95602456       0.89115530
Si       1.69384322      -0.62195562       4.17638286
Si       2.07130984      -1.78138919       5.11838226
Si       1.55383211      -0.24013525       6.06843342
Si       0.34383553      -0.97117000       5.44183641
Si      -1.76087364       1.63458749       1.19897733
Si       3.65228158       3.63982953       4.59583856
Si      -1.24220806       0.28231754       2.36375016
Si      -3.70875826       2.87794688       5.83941011
Si       2.93963449       4.60532076      -0.00000000
Si       2.89996623      -1.85108512       3.44039500
22
Lattice="8.837171201375517 0.8925798494100367 -0.07895843591054917 -2.91097913830799 8.39157280170586 0.07895843591054573 -3.029650791959887 -4.599593580194066 6.968750464782725" Properties=species:S:1:pos:R:3 unique_starting_index=6 config_type=initial n_minim_iter=14 stress="-0.007851727879768568 0.001715852907199671 0.006521739658569194 0.001715852907199671 -0.00625887116358855 -0.004162908910949395 0.006521739658569194 -0.004162908910949395 -0.008946980106953618" pbc="T T T"
Si      -2.35130065       5.57491723       5.58323882
Si       2.28327669       1.00196133       4.90254485
Si       5.95354535       3.24281136      -0.24650653
Si      -0.08987711      -0.45220696       3.69518464
Si       5.75505482      -1.21411856       1.98724717
Si       0.10605168       4.00635816       1.46447008
Si       2.52420539       4.41264912       3.27356582
Si      -2.59479109       2.16586464       7.21525699
Si       0.40660740       5.80837370       1.84869398
Si       1.61593696       5.96752666       2.78242645
Si       1.87708635       4.59163072       1.52277308
Si       2.01679464       5.98977181       0.88827373
Si       1.70287522      -0.62142513       4.18632401
Si       2.06766296      -1.78535707       5.12005648
Si       1.55428499      -0.24846044       6.08047673
Si       0.34491657      -0.96382393       5.44597738
Si      -1.80174395       1.63434942       1.19110481
Si       3.68091221       3.69961173       4.57067813
Si      -1.22363258       0.29678670       2.39807233
Si      -3.69962433       2.84579047       5.85660409
Si       2.96309603       4.64207633      -0.00000000
Si       2.90376020      -1.85350686       3.44489601
22
Lattice="8.847626453633922 0.8852975277931311 -0.07406963693791177 -2.9219864246541603 8.39799028993821 0.07406963693790952 -3.025253924178597 -4.6017915546479475 6.9814815812038304" Properties=species:S:1:pos:R:3 unique_starting_index=6 config_type=initial n_minim_iter=15 stress="0.002544462361185935 0.0002661735945621466 -0.015922538951870117 0.0002661735945621466 0.0027915560345494425 0.010163558001085041 -0.015922538951870117 0.010163558001085041 0.0023745643307345535" pbc="T T T"
Si      -2.36805179       5.57931785       5.57857056
Si       2.30052042       0.99663769       4.92392120
Si       5.94478462       3.23234303      -0.24207473
Si      -0.08248408      -0.44147420       3.70966789
Si       5.75781821      -1.21019922       1.98349074
Si       0.11048537       3.99723623       1.47698066
Si       2.53467282       4.42081085       3.27181368
Si      -2.59620115       2.15131287       7.22355631
Si       0.39829178       5.80061316       1.85266505
Si       1.61796456       5.97808372       2.78526032
Si       1.88406847       4.59636140       1.53583521
Si       2.00106556       5.98940721       0.88493370
Si       1.71599425      -0.61733927       4.19622126
Si       2.06852162      -1.79836507       5.12881653
Si       1.56497335      -0.26507901       6.09654788
Si       0.35066482      -0.95769705       5.44564637
Si      -1.87574827       1.58601909       1.19202920
Si       3.72887894       3.76395357       4.54703364
Si      -1.18106905       0.36518608       2.43444794
Si      -3.71891586       2.76253627       5.86352201
Si       2.96282001       4.64164391      -0.00000000
Si       2.91118626      -1.85824701       3.45370597
22
Lattice="8.86525465303101 0.8509423680212499 -0.038828130135806625 -2.9605701377465596 8.399515904876022 0.03882813013580337 -2.9850705146778203 -4.604338276036162 7.014825276705101" Properties=species:S:1:pos:R:3 unique_starting_index=6 config_type=initial n_minim_iter=16 stress="0.024376323141972488 -0.011386130339203469 -0.0023752752483091554 -0.011386130339203469 0.013806376204343135 0.0015161682334617716 -0.0023752752483091554 0.0015161682334617716 0.03164423473710236" pbc="T T T"
Si      -2.40002133       5.56253747       5.56278568
Si       2.34831922       0.98021119       4.97708176
Si       5.92535617       3.20134282      -0.23759865
Si      -0.04734536      -0.44360491       3.74270867
Si       5.78060604      -1.21066089       1.99891538
Si       0.11032408       3.96015224       1.49086772
Si       2.53717406       4.41641020       3.27211661
Si      -2.57595687       2.11809191       7.25242392
Si       0.38685420       5.76756127       1.85526664
Si       1.61311711       5.97532484       2.77711785
Si       1.87907703       4.58049661       1.54081954
Si       1.98454876       5.97279527       0.88060511
Si       1.75571606      -0.62544442       4.23770742
Si       2.08354062      -1.82520168       5.15955864
Si       1.59704270      -0.28960125       6.13422017
Si       0.37855951      -0.97145062       5.47400573
Si      -1.98663995       1.51230467       1.17799387
Si       3.80180988       3.83879596       4.52656653
Si      -1.10370478       0.46030147       2.48825874
Si      -3.73749180       2.62989555       5.87565953
Si       2.95234226       4.62522914      -0.00000000
Si       2.94009207      -1.87669795       3.48799857
22
Lattice="8.849471463811826 0.844527720467075 -0.03996229130377243 -2.959743576874053 8.382499043758383 0.03996229130376795 -2.9785482046023324 -4.59201229219307 7.004972729810678" Properties=species:S:1:pos:R:3 unique_starting_index=6 config_type=initial n_minim_iter=17 stress="0.02027869034138248 -0.01371165397805434 0.00358719914042638 -0.01371165397805434 0.007549918523601731 -0.0022897545821783435 0.00358719914042638 -0.0022897545821783435 0.029031011612409504" pbc="T T T"
Si      -2.42415755       5.53772840       5.54492965
Si       2.36582597       0.99276268       4.98294404
Si       5.90872986       3.18422952      -0.24600650
Si      -0.03611805      -0.43953462       3.73766299
Si       5.77535938      -1.18358562       1.98206639
Si       0.10533156       3.92312351       1.50000536
Si       2.52770483       4.41720210       3.26730973
Si      -2.57795727       2.10813197       7.25097923
Si       0.37772201       5.73521540       1.85816155
Si       1.61303372       5.98057462       2.76741202
Si       1.86479383       4.56714905       1.53396338
Si       1.98555963       5.96163621       0.88546308
Si       1.76703531      -0.61098383       4.23756071
Si       2.06456832      -1.83477723       5.14681118
Si       1.59301756      -0.28105650       6.11950964
Si       0.37898835      -0.97769980       5.47100934
Si      -2.04671900       1.44953049       1.17400897
Si       3.83587875       3.90168350       4.49984765
Si      -1.05448370       0.53000643       2.50512508
Si      -3.76178815       2.54428082       5.87092605
Si       2.94486394       4.61351339      -0.00000000
Si       2.93546163      -1.87374228       3.48250522
22
Lattice="8.817197270779843 0.8657180011910898 -0.06511334317187847 -2.926934898284089 8.362146104358667 0.06511334317187407 -3.000015688924517 -4.578898580537781 6.9663669708283855" Properties=species:S:1:pos:R:3 unique_starting_index=6 config_type=initial n_minim_iter=18 stress="0.0007366977958010417 -0.0011846573874589748 -0.00010998194983016808 -0.0011846573874589748 -0.0003630406887872332 7.020286963824099e-05 -0.00010998194983016808 7.020286963824099e-05 0.0014928796169546672" pbc="T T T"
Si      -2.43750067       5.51109950       5.52577830
Si       2.36563441       1.02862020       4.95471259
Si       5.90358834       3.18873237      -0.26594643
Si      -0.04079709      -0.43717964       3.70581384
Si       5.75422302      -1.13435878       1.94654103
Si       0.09813661       3.89257015       1.50570201
Si       2.51087787       4.42790050       3.26055313
Si      -2.59317576       2.11847783       7.23231340
Si       0.37917648       5.71285124       1.86115826
Si       1.62076390       5.99825460       2.75415312
Si       1.84790687       4.56162557       1.51790880
Si       2.00702047       5.96541864       0.89672550
Si       1.75834997      -0.58341486       4.21221385
Si       2.02220302      -1.82975992       5.10520871
Si       1.56594557      -0.24688420       6.06964147
Si       0.35962046      -0.98222893       5.44845816
Si      -2.05279391       1.40319579       1.17723899
Si       3.84044104       3.94957299       4.48105137
Si      -1.03443369       0.56742065       2.48531560
Si      -3.78991735       2.51202365       5.85424132
Si       2.94513119       4.61393206      -0.00000000
Si       2.90859079      -1.85659029       3.45062681
22
Lattice="8.82000990215542 0.8752147582469324 -0.06951023078357686 -2.9195050018631936 8.368695602736969 0.06951023078357199 -3.0088431624487124 -4.5845559877745075 6.963628108831134" Properties=species:S:1:pos:R:3 unique_starting_index=6 config_type=initial n_minim_iter=19 stress="-0.0010672004988467678 0.000503418996541501 0.005043568205692593 0.000503418996541501 -0.0005998677068887998 -0.0032193733766801517 0.005043568205692593 -0.0032193733766801517 -0.001388540460104234" pbc="T T T"
Si      -2.44050729       5.51891716       5.51800932
Si       2.37232051       1.02974596       4.95705628
Si       5.90453024       3.19005458      -0.27295995
Si      -0.03434255      -0.43193098       3.70299244
Si       5.74641435      -1.12398081       1.93706159
Si       0.10509590       3.89402645       1.51512902
Si       2.51433627       4.44635372       3.26063567
Si      -2.60120048       2.11423145       7.23658805
Si       0.38408400       5.71880334       1.86548073
Si       1.62324282       6.01017183       2.75321898
Si       1.85136234       4.57211508       1.51708307
Si       2.01220142       5.97200058       0.89945664
Si       1.75928839      -0.58180641       4.21040913
Si       2.01670826      -1.82846000       5.09814737
Si       1.56090700      -0.24507111       6.06417147
Si       0.35885271      -0.98033578       5.44654503
Si      -2.08404253       1.37313849       1.17633037
Si       3.86376820       3.99597875       4.46814469
Si      -1.01098981       0.60245980       2.49548342
Si      -3.80542230       2.47191697       5.85680796
Si       2.95025245       4.62195518      -0.00000000
Si       2.90558337      -1.85467061       3.44705894
22
Lattice="8.829335313257031 0.897334160184336 -0.08168659417937861 -2.903367687478272 8.386466880651755 0.081686594179373 -3.0318381839073463 -4.597949904527943 6.959587435378834" Properties=species:S:1:pos:R:3 unique_starting_index=6 config_type=initial n_minim_iter=20 stress="0.0007043988045365627 -0.0003227683390888245 0.005998968858814565 -0.0003227683390888245 0.000404767225100007 -0.003829217697465291 0.005998968858814565 -0.003829217697465291 0.0009104244327152948" pbc="T T T"
Si      -2.43723366       5.54261235       5.51190530
Si       2.37509702       1.03026082       4.95486959
Si       5.91464331       3.20549002      -0.28312739
Si      -0.03323258      -0.42645831       3.69873225
Si       5.73204279      -1.11252012       1.92303125
Si       0.11835273       3.91134923       1.52936872
Si       2.52130066       4.47616138       3.26085518
Si      -2.61445250       2.11650919       7.24271482
Si       0.39565186       5.73467804       1.87344441
Si       1.63144444       6.03782189       2.75200953
Si       1.86345963       4.59399264       1.51669211
Si       2.02456958       5.99065028       0.90103074
Si       1.75792042      -0.57611989       4.20757790
Si       2.00324216      -1.82467775       5.08614302
Si       1.54962104      -0.23939462       6.05855669
Si       0.35060864      -0.97354601       5.44289532
Si      -2.11191800       1.33933939       1.17776328
Si       3.89084223       4.05836135       4.45879273
Si      -0.98879913       0.63988758       2.50079470
Si      -3.83120153       2.43677982       5.86351074
Si       2.96298381       4.64190052      -0.00000000
Si       2.89874856      -1.85030787       3.43895042
22
Lattice="8.831317350443033 0.9063391609943763 -0.09233874024466304 -2.8960341459992915 8.392055948585822 0.09233874024465638 -3.045474843848448 -4.599515612225866 6.956413039082355" Properties=species:S:1:pos:R:3 unique_starting_index=6 config_type=initial n_minim_iter=21 stress="-0.002873219057674455 0.0021918548805671453 -0.0009628949654927636 0.0021918548805671453 -0.0008384812589192653 0.000614628035165587 -0.0009628949654927636 0.000614628035165587 -0.004272307512160766" pbc="T T T"
Si      -2.43510585       5.55651339       5.51084991
Si       2.37104820       1.02785616       4.94990325
Si       5.92185512       3.21005709      -0.28741443
Si      -0.03809908      -0.42225226       3.69193618
Si       5.71991163      -1.10976573       1.91417105
Si       0.12376275       3.92315520       1.53790187
Si       2.52284357       4.48654638       3.26447685
Si      -2.62698288       2.12340779       7.24382747
Si       0.40038119       5.74732017       1.87751639
Si       1.63022504       6.04347965       2.75482513
Si       1.87014888       4.60360838       1.51942531
Si       2.02528382       5.99684912       0.90056595
Si       1.74992903      -0.57640965       4.20158791
Si       1.99908146      -1.81663116       5.07889665
Si       1.54130634      -0.23770266       6.05584709
Si       0.34287768      -0.96499582       5.43698772
Si      -2.11513000       1.32212103       1.17567897
Si       3.89350307       4.08620167       4.46217512
Si      -0.97830340       0.65245664       2.49423791
Si      -3.85177031       2.43064051       5.87307281
Si       2.96764160       4.64919756      -0.00000000
Si       2.89292125      -1.84658822       3.43203715
