16
Lattice="13.79376578122421 4.71267642324296 6.044592292361837 5.286060604306872 12.023462151481668 2.2242890345885042 5.293432047374171 4.693581947148558 5.689662778804098" Properties=species:S:1:pos:R:3 unique_starting_index=30 config_type=initial n_minim_iter=1 energy=-2731.8941065654817 free_energy=-2731.8941065654817 pbc="T T T"
Si      13.70887417      14.05054111       9.23764519
Si      10.66438426       7.37917941       4.72089891
Si       8.11471734       8.24228010       4.89531775
Si      16.25854109      13.18744043       9.06322636
Si      14.56661286      12.44335400       9.22169225
Si       9.80664557       8.98636653       4.73685186
Si      11.63752860       8.88585211       5.05171226
Si      12.73572983      12.54386841       8.90683185
Si       6.67109736       9.17340124       4.17577750
Si      17.70216107      12.25631928       9.78276661
Si      19.39030912      12.77189633       9.20256618
Si       4.98294931       8.65782419       4.75597792
Si       6.42297271       7.49828189       4.70939520
Si      17.95028572      13.93143864       9.24914891
Si      16.43487290      14.80857413       9.81222488
Si       7.93838553       6.62114639       4.14631923
16
Lattice="13.793409698854205 4.712452176849942 6.0445254880085075 5.285753711149803 12.02337637144242 2.22427420855951 5.293215812854334 4.693499798437357 5.6896714340977805" Properties=species:S:1:pos:R:3 unique_starting_index=30 config_type=initial n_minim_iter=2 stress="-0.0006906874004240775 -0.00016992511052912383 -9.440247194240887e-05 -0.00016992511052912383 -0.00027051530477236173 -2.1613248633983012e-05 -9.440247194240887e-05 -2.1613248633983012e-05 -0.0002484836516966398" pbc="T T T"
Si      13.70834669      14.05033751       9.23762515
Si      10.66403254       7.37899084       4.72084599
Si       8.11439459       8.24216995       4.89527422
Si      16.25798463      13.18715839       9.06319691
Si      14.56608500      12.44313877       9.22165557
Si       9.80629422       8.98618957       4.73681556
Si      11.63714215       8.88567156       5.05164913
Si      12.73523708      12.54365678       8.90682200
Si       6.67079053       9.17325562       4.17574852
Si      17.70158869      12.25607272       9.78272261
Si      19.38969869      12.77158892       9.20248841
Si       4.98268053       8.65773942       4.75598272
Si       6.42268633       7.49816004       4.70936986
Si      17.94969290      13.93116830       9.24910128
Si      16.43426942      14.80828057       9.81217165
Si       7.93810980       6.62104778       4.14629948
16
Lattice="13.793562533280882 4.712322146745732 6.044616746452284 5.285631912238963 12.023527516284275 2.2243429036934117 5.293190363162697 4.6935189145056 5.689833380622443" Properties=species:S:1:pos:R:3 unique_starting_index=30 config_type=initial n_minim_iter=3 stress="0.00023053262933877723 -0.00028415183666343646 -0.00026972884494474064 -0.00028415183666343646 2.6423833269187067e-05 -4.765797059865551e-06 -0.00026972884494474064 -4.765797059865551e-06 5.510345208633741e-05" pbc="T T T"
Si      13.70832673      14.05043549       9.23787200
Si      10.66405808       7.37893309       4.72092103
Si       8.11435638       8.24224388       4.89535183
Si      16.25802843      13.18712470       9.06344120
Si      14.56608345      12.44319286       9.22187442
Si       9.80630136       8.98617571       4.73691861
Si      11.63717775       8.88567621       5.05172080
Si      12.73520706      12.54369236       8.90707223
Si       6.67071832       9.17326211       4.17582990
Si      17.70166649      12.25610646       9.78296313
Si      19.38979537      12.77154252       9.20266526
Si       4.98258944       8.65782606       4.75612777
Si       6.42261521       7.49817109       4.70946288
Si      17.94976959      13.93119749       9.24933015
Si      16.43426184      14.80825926       9.81238770
Si       7.93812297       6.62110932       4.14640533
16
Lattice="13.793695731179227 4.712678892027861 6.0451516740221996 5.285865169678168 12.023839752525912 2.224590111802494 5.2933762553494015 4.69372030031984 5.69014933663213" Properties=species:S:1:pos:R:3 unique_starting_index=30 config_type=initial n_minim_iter=4 stress="-5.563977033412195e-06 8.283838704140535e-05 -3.653264506053781e-05 8.283838704140535e-05 -2.9796793687395714e-05 5.885224974549529e-06 -3.653264506053781e-05 5.885224974549529e-06 -3.412466745729336e-05" pbc="T T T"
Si      13.70873242      14.05099640       9.23855297
Si      10.66420473       7.37924254       4.72133815
Si       8.11454431       8.24259280       4.89567900
Si      16.25839285      13.18764614       9.06421212
Si      14.56641748      12.44375222       9.22255532
Si       9.80651967       8.98648673       4.73733580
Si      11.63737632       8.88607993       5.05216669
Si      12.73556084      12.54415902       8.90772443
Si       6.67093582       9.17348517       4.17611954
Si      17.70200134      12.25675377       9.78377158
Si      19.39010192      12.77216844       9.20346700
Si       4.98283523       8.65807050       4.75642412
Si       6.42278192       7.49839464       4.70974646
Si      17.95015524      13.93184430       9.25014467
Si      16.43465167      14.80878668       9.81312129
Si       7.93828549       6.62145226       4.14676983
16
Lattice="13.793717025288403 4.712471782546519 6.045590742973489 5.28566052275122 12.023931539030995 2.2247537782380733 5.2933986974823055 4.693688322465291 5.690394171610486" Properties=species:S:1:pos:R:3 unique_starting_index=30 config_type=initial n_minim_iter=5 stress="-1.88214635715482e-05 -0.0001461425643302151 0.00021269894488289837 -0.0001461425643302151 4.745946829536933e-05 -3.144083207628419e-05 0.00021269894488289837 -3.144083207628419e-05 5.901450247443383e-05" pbc="T T T"
Si      13.70863320      14.05094010       9.23907436
Si      10.66414304       7.37915154       4.72166434
Si       8.11444749       8.24256273       4.89594401
Si      16.25832875      13.18752891       9.06479468
Si      14.56634575      12.44368438       9.22309086
Si       9.80643049       8.98640726       4.73764784
Si      11.63729281       8.88598498       5.05252438
Si      12.73548343      12.54410666       8.90821431
Si       6.67084601       9.17349295       4.17633362
Si      17.70193023      12.25659870       9.78440508
Si      19.39002221      12.77198489       9.20410040
Si       4.98275404       8.65810675       4.75663830
Si       6.42270603       7.49837214       4.70995905
Si      17.95007021      13.93171951       9.25077964
Si      16.43454377      14.80865354       9.81368846
Si       7.93823247       6.62143810       4.14705023
16
Lattice="13.79367819488874 4.712478757874669 6.045878028434142 5.285503565279584 12.024256084688838 2.2249445553035487 5.293338195633528 4.693810072293815 5.690679142256399" Properties=species:S:1:pos:R:3 unique_starting_index=30 config_type=initial n_minim_iter=6 stress="5.799823736014355e-05 6.005271526311934e-06 -1.7966641474225308e-05 6.005271526311934e-06 -5.788919422074261e-05 -2.6629409512720218e-05 -1.7966641474225308e-05 -2.6629409512720218e-05 -0.000120421481074555" pbc="T T T"
Si      13.70847584      14.05123391       9.23962827
Si      10.66404411       7.37931101       4.72187346
Si       8.11425326       8.24274428       4.89615514
Si      16.25826669      13.18780063       9.06534658
Si      14.56619652      12.44403013       9.22361447
Si       9.80632344       8.98651478       4.73788726
Si      11.63719141       8.88613082       5.05277857
Si      12.73532855      12.54441410       8.90872315
Si       6.67078084       9.17371695       4.17651303
Si      17.70173912      12.25682797       9.78498870
Si      19.38989087      12.77221332       9.20460054
Si       4.98262909       8.65833159       4.75690119
Si       6.42254394       7.49853073       4.71011389
Si      17.94997601      13.93201419       9.25138783
Si      16.43436562      14.80886093       9.81418294
Si       7.93815433       6.62168398       4.14731878
16
Lattice="13.79341714277526 4.712598247790602 6.046419110470663 5.285294606428231 12.024694993368296 2.225287698860162 5.293224134576959 4.6940141254091525 5.691153821683386" Properties=species:S:1:pos:R:3 unique_starting_index=30 config_type=initial n_minim_iter=7 stress="-0.0001483543731384835 2.451425740848084e-05 -5.902580777196753e-05 2.451425740848084e-05 0.0001122463331042991 0.00014077653845901068 -5.902580777196753e-05 0.00014077653845901068 0.00023630880845120986" pbc="T T T"
Si      13.70816478      14.05172872       9.24054289
Si      10.66377111       7.37957865       4.72231774
Si       8.11399898       8.24303530       4.89661242
Si      16.25793691      13.18827207       9.06624821
Si      14.56586925      12.44453162       9.22449598
Si       9.80606664       8.98677575       4.73836465
Si      11.63691662       8.88640558       5.05329551
Si      12.73501926      12.54490179       8.90956512
Si       6.67058338       9.17406082       4.17691390
Si      17.70135251      12.25724655       9.78594673
Si      19.38944127      12.77264861       9.20552109
Si       4.98249461       8.65865875       4.75733954
Si       6.42230817       7.49881788       4.71049143
Si      17.94962772      13.93248949       9.25236920
Si      16.43397317      14.80932673       9.81510386
Si       7.93796272       6.62198063       4.14775677
16
Lattice="13.793538781137697 4.7124513690066765 6.046639379046142 5.285227059708514 12.024770610819013 2.225278153185276 5.293278210355232 4.693964292490009 5.691269079831844" Properties=species:S:1:pos:R:3 unique_starting_index=30 config_type=initial n_minim_iter=8 stress="1.9351954956045276e-05 -2.1286251410101892e-06 -7.34245838210327e-06 -2.1286251410101892e-06 -7.006011072465728e-05 -9.62787748934402e-06 -7.34245838210327e-06 -9.62787748934402e-06 9.317583313840427e-06" pbc="T T T"
Si      13.70825085      14.05164733       9.24075231
Si      10.66379320       7.37953894       4.72243430
Si       8.11399368       8.24299615       4.89669085
Si      16.25805037      13.18819012       9.06649576
Si      14.56595934      12.44448215       9.22472303
Si       9.80608471       8.98670413       4.73846358
Si      11.63696338       8.88632722       5.05342971
Si      12.73508067      12.54485905       8.90975690
Si       6.67056635       9.17406533       4.17694706
Si      17.70147770      12.25712094       9.78623955
Si      19.38953554      12.77253296       9.20581576
Si       4.98250851       8.65865331       4.75737085
Si       6.42227500       7.49880600       4.71051727
Si      17.94976905      13.93238027       9.25266934
Si      16.43405103      14.80919742       9.81530665
Si       7.93799302       6.62198885       4.14787996
16
Lattice="13.793500093976983 4.712584219963646 6.046815690118105 5.28515710729396 12.025270469648854 2.225343372945592 5.293283905695952 4.6941414171120535 5.691353224185972" Properties=species:S:1:pos:R:3 unique_starting_index=30 config_type=initial n_minim_iter=9 stress="-1.2050977804621983e-05 -5.151517385461823e-06 -1.2066545369221294e-05 -5.151517385461823e-06 0.00013871803410362912 3.616003929028174e-05 -1.2066545369221294e-05 3.616003929028174e-05 -0.00012244909120729704" pbc="T T T"
Si      13.70823831      14.05216853       9.24095531
Si      10.66370280       7.37982757       4.72255698
Si       8.11393381       8.24331001       4.89677188
Si      16.25800729      13.18868610       9.06674041
Si      14.56590879      12.44495275       9.22492155
Si       9.80603232       8.98704336       4.73859073
Si      11.63690812       8.88662645       5.05357004
Si      12.73503299      12.54536966       8.90994225
Si       6.67051182       9.17442266       4.17702230
Si      17.70142929      12.25757345       9.78648999
Si      19.38947751      12.77299293       9.20607504
Si       4.98246360       8.65900318       4.75743725
Si       6.42222460       7.49911507       4.71056359
Si      17.94971650      13.93288104       9.25294870
Si      16.43399559      14.80973920       9.81551878
Si       7.93794552       6.62225691       4.14799351
16
Lattice="13.793538055821248 4.712493556203793 6.047298006287956 5.2851152884823485 12.025361763982351 2.225397964738651 5.293344487139886 4.694100387355529 5.691663806048714" Properties=species:S:1:pos:R:3 unique_starting_index=30 config_type=initial n_minim_iter=10 stress="-1.5329111379745316e-05 1.8127099320274977e-05 -1.8512359063862456e-05 1.8127099320274977e-05 -1.8931300083561646e-05 -4.356698696491562e-05 -1.8512359063862456e-05 -4.356698696491562e-05 5.701574484939824e-05" pbc="T T T"
Si      13.70834747      14.05211229       9.24148921
Si      10.66365036       7.37984341       4.72287057
Si       8.11391871       8.24330633       4.89700828
Si      16.25807912      13.18864938       9.06735150
Si      14.56595840      12.44491715       9.22546942
Si       9.80603943       8.98703855       4.73889036
Si      11.63690447       8.88655808       5.05390945
Si      12.73509336      12.54539763       8.91045033
Si       6.67050765       9.17442451       4.17721401
Si      17.70149018      12.25753120       9.78714577
Si      19.38954294      12.77293849       9.20670810
Si       4.98245489       8.65901722       4.75765167
Si       6.42221552       7.49914418       4.71075998
Si      17.94978231      13.93281153       9.25359980
Si      16.43406025      14.80968714       9.81609404
Si       7.93793758       6.62226857       4.14826574
16
Lattice="13.793682574893205 4.712465717439392 6.047756851083561 5.285037107399615 12.0255452267563 2.22567319133194 5.2934432469871116 4.6941779764207485 5.69191478875968" Properties=species:S:1:pos:R:3 unique_starting_index=30 config_type=initial n_minim_iter=11 stress="4.012109463286741e-05 -1.131542455934981e-05 1.1473654831681677e-05 -1.131542455934981e-05 -8.563167064699625e-05 0.00011360872929850786 1.1473654831681677e-05 0.00011360872929850786 -2.260028651779681e-05" pbc="T T T"
Si      13.70850605      14.05225832       9.24210287
Si      10.66365688       7.37993060       4.72324196
Si       8.11394097       8.24342515       4.89730022
Si      16.25822196      13.18876377       9.06804461
Si      14.56609376      12.44506271       9.22606686
Si       9.80606917       8.98712621       4.73927797
Si      11.63692321       8.88658774       5.05434965
Si      12.73523971      12.54560118       8.91099518
Si       6.67053275       9.17453578       4.17752075
Si      17.70163018      12.25765314       9.78782409
Si      19.38969706      12.77303063       9.20742169
Si       4.98246587       8.65915829       4.75792314
Si       6.42222655       7.49928623       4.71100785
Si      17.94993638      13.93290270       9.25433698
Si      16.43420078      14.80983997       9.81676510
Si       7.93796215       6.62234895       4.14857973
16
Lattice="13.793640030054636 4.712382924942572 6.048101636335044 5.284903285639514 12.026097740121207 2.2254727881240046 5.293477715762077 4.694201438997642 5.692040832743015" Properties=species:S:1:pos:R:3 unique_starting_index=30 config_type=initial n_minim_iter=12 stress="-1.3562094603874413e-05 9.05067212681171e-06 -2.0203471766869588e-05 9.05067212681171e-06 4.6514736043891725e-05 -2.0584692124629925e-05 -2.0203471766869588e-05 -2.0584692124629925e-05 2.7015857509582148e-06" pbc="T T T"
Si      13.70851356      14.05257221       9.24224873
Si      10.66350747       7.38010990       4.72336653
Si       8.11385258       8.24366819       4.89730346
Si      16.25816845      13.18901392       9.06831180
Si      14.56605846      12.44531817       9.22626801
Si       9.80596257       8.98736394       4.73934725
Si      11.63677242       8.88675736       5.05450203
Si      12.73524861      12.54592474       8.91111323
Si       6.67049785       9.17482595       4.17749798
Si      17.70152318      12.25785615       9.78811728
Si      19.38960800      12.77325796       9.20773196
Si       4.98241303       8.65942414       4.75788329
Si       6.42215061       7.49953176       4.71099934
Si      17.94987042      13.93315035       9.25461592
Si      16.43414973      14.81016247       9.81694761
Si       7.93787130       6.62251963       4.14866764
16
Lattice="13.793887729711447 4.712014595313806 6.049018749996143 5.284718831821732 12.026283755514807 2.225570125757067 5.293695605325192 4.694069089889593 5.692440969637497" Properties=species:S:1:pos:R:3 unique_starting_index=30 config_type=initial n_minim_iter=13 stress="5.63752320692676e-06 1.1336924703915616e-06 -1.3753716574764738e-06 1.1336924703915616e-06 5.445638559365658e-06 7.953320094887069e-06 -1.3753716574764738e-06 7.953320094887069e-06 1.281446391021275e-05" pbc="T T T"
Si      13.70882732      14.05240176       9.24306802
Si      10.66347485       7.37996568       4.72396183
Si       8.11384013       8.24363403       4.89770996
Si      16.25846204      13.18873341       9.06931989
Si      14.56632896      12.44509633       9.22715353
Si       9.80597321       8.98727111       4.73987631
Si      11.63678895       8.88658553       5.05522559
Si      12.73551321      12.54578191       8.91180426
Si       6.67056646       9.17479362       4.17783805
Si      17.70173570      12.25757382       9.78919179
Si      19.38991082      12.77294449       9.20894228
Si       4.98239135       8.65942295       4.75808756
Si       6.42216606       7.49957144       4.71127511
Si      17.95013610      13.93279600       9.25575473
Si      16.43442041      14.80990318       9.81793175
Si       7.93788176       6.62246426       4.14909810
16
Lattice="13.794006958590986 4.711607337126556 6.049638155837842 5.284526231067103 12.026324886192612 2.2254996808780425 5.293843080324568 4.693866552265247 5.692633554892189" Properties=species:S:1:pos:R:3 unique_starting_index=30 config_type=initial n_minim_iter=14 stress="1.5060376723962189e-06 1.1510364529653017e-07 -9.971172284127243e-06 1.1510364529653017e-07 8.336032514656382e-06 4.587914658315562e-06 -9.971172284127243e-06 4.587914658315562e-06 1.0434280890562448e-05" pbc="T T T"
Si      13.70902069      14.05205365       9.24346023
Si      10.66335558       7.37974513       4.72431116
Si       8.11376905       8.24348284       4.89790607
Si      16.25860722      13.18831594       9.06986532
Si      14.56641898      12.44472388       9.22762049
Si       9.80595729       8.98707490       4.74015090
Si      11.63668523       8.88635201       5.05564457
Si      12.73569104      12.54544677       8.91212682
Si       6.67054585       9.17469363       4.17798451
Si      17.70183042      12.25710515       9.78978688
Si      19.39004964      12.77245280       9.20963802
Si       4.98232663       8.65934597       4.75813337
Si       6.42209808       7.49946876       4.71136581
Si      17.95027819      13.93233002       9.25640558
Si      16.43455072      14.80944652       9.81847483
Si       7.93782555       6.62235226       4.14929656
16
Lattice="13.794318355011916 4.710716980558598 6.0509291647981 5.284177248124367 12.026258955059967 2.225323816245623 5.294209683292282 4.693380007358337 5.692972848768397" Properties=species:S:1:pos:R:3 unique_starting_index=30 config_type=initial n_minim_iter=15 stress="2.3799900671054435e-06 1.0904053146455203e-05 -6.022980722403434e-06 1.0904053146455203e-05 -2.1042053621921186e-05 6.511903415829639e-06 -6.022980722403434e-06 6.511903415829639e-06 1.576644163877016e-05" pbc="T T T"
Si      13.70951560      14.05114283       9.24421843
Si      10.66318969       7.37921312       4.72500740
Si       8.11369287       8.24310422       4.89831038
Si      16.25901241      13.18725173       9.07091545
Si      14.56683416      12.44379405       9.22849426
Si       9.80587113       8.98656190       4.74073157
Si      11.63660115       8.88574816       5.05644941
Si      12.73610413      12.54460778       8.91277642
Si       6.67057241       9.17437588       4.17823345
Si      17.70213287      12.25598006       9.79099238
Si      19.39045902      12.77126833       9.21101642
Si       4.98224626       8.65908761       4.75820941
Si       6.42196326       7.49912623       4.71153595
Si      17.95074203      13.93122971       9.25768988
Si      16.43496944      14.80833447       9.81955942
Si       7.93773584       6.62202148       4.14966641
16
Lattice="13.794842225827596 4.709107812273942 6.053098818029848 5.283468345389146 12.026331923931739 2.224940322128541 5.294825055508664 4.692553410141242 5.693464543069927" Properties=species:S:1:pos:R:3 unique_starting_index=30 config_type=initial n_minim_iter=16 stress="3.2635242883238344e-06 2.442923028989661e-06 -1.1363253795297701e-05 2.442923028989661e-06 6.638011663807626e-07 -2.4183399340243045e-05 -1.1363253795297701e-05 -2.4183399340243045e-05 -6.874939053669845e-06" pbc="T T T"
Si      13.71022945      14.04968273       9.24536354
Si      10.66290618       7.37831042       4.72614014
Si       8.11338024       8.24250187       4.89893492
Si      16.25975538      13.18549127       9.07256876
Si      14.56743821      12.44219653       9.22978180
Si       9.80569741       8.98579662       4.74172189
Si      11.63636293       8.88473019       5.05770534
Si      12.73677270      12.54326296       8.91379834
Si       6.67054309       9.17389871       4.17855811
Si      17.70259253      12.25409443       9.79294557
Si      19.39103153      12.76927381       9.21329529
Si       4.98210410       8.65871934       4.75820840
Si       6.42166554       7.49861107       4.71177590
Si      17.95147009      13.92938207       9.25972778
Si      16.43561898      14.80653563       9.82128296
Si       7.93751665       6.62145752       4.15022072
16
Lattice="13.79570587083539 4.707744520728055 6.056277663608077 5.282780301062446 12.026532635984752 2.2255672127534316 5.295692775416156 4.692038423493159 5.694575838072489" Properties=species:S:1:pos:R:3 unique_starting_index=30 config_type=initial n_minim_iter=17 stress="1.4157546758902805e-05 -9.546817370744255e-07 -4.529118027561525e-06 -9.546817370744255e-07 2.1921960163369997e-05 -2.14624573755179e-05 -4.529118027561525e-06 -2.14624573755179e-05 -1.1434574404750341e-05" pbc="T T T"
Si      13.71134818      14.04867945       9.24821361
Si      10.66283077       7.37763613       4.72820710
Si       8.11320488       8.24211006       4.90048168
Si      16.26097406      13.18420552       9.07593903
Si      14.56843020      12.44122062       9.23272897
Si       9.80574875       8.98509496       4.74369174
Si      11.63634551       8.88397357       5.06012231
Si      12.73783344      12.54234201       8.91629841
Si       6.67059973       9.17361054       4.17975762
Si      17.70357922      12.25270504       9.79666309
Si      19.39216684      12.76774058       9.21741436
Si       4.98201211       8.65857500       4.75900636
Si       6.42149398       7.49835270       4.71297459
Si      17.95268497      13.92796288       9.26344613
Si      16.43681099      14.80535200       9.82484255
Si       7.93736796       6.62096358       4.15157816
16
Lattice="13.797965205941658 4.704858285443038 6.065565927122817 5.281298893806627 12.025745579703973 2.229214034490463 5.298012695806367 4.691053223712387 5.698530187738878" Properties=species:S:1:pos:R:3 unique_starting_index=30 config_type=initial n_minim_iter=18 stress="3.6880070954219116e-05 7.481244595510943e-06 -1.1640793005369884e-05 7.481244595510943e-06 1.2900213597995662e-05 -6.819301254926476e-06 -1.1640793005369884e-05 -6.819301254926476e-06 -9.742098954700094e-06" pbc="T T T"
Si      13.71452777      14.04620093       9.25823497
Si      10.66274903       7.37545616       4.73507518
Si       8.11316515       8.24037472       4.90607422
Si      16.26411165      13.18128237       9.08723593
Si      14.57139255      12.43849248       9.24287342
Si       9.80588424       8.98316461       4.75043673
Si      11.63624586       8.88171180       5.06785700
Si      12.74103093      12.53994529       8.92545315
Si       6.67107656       9.17234340       4.18443476
Si      17.70620023      12.24931369       9.80887539
Si      19.39537095      12.76389607       9.23067592
Si       4.98190585       8.65776102       4.76263423
Si       6.42122324       7.49741942       4.71756943
Si      17.95605356      13.92423767       9.27574072
Si      16.44034248      14.80198818       9.83674693
Si       7.93693432       6.61966891       4.15656322
16
Lattice="13.799564745674827 4.702856775322687 6.072404650474336 5.2802481694236745 12.024979937426886 2.2321427928981996 5.29967350989356 4.690390595777802 5.7015405981131595" Properties=species:S:1:pos:R:3 unique_starting_index=30 config_type=initial n_minim_iter=19 stress="6.381406794471939e-05 2.9779443273525308e-05 -5.7570737669836494e-06 2.9779443273525308e-05 2.11106589013593e-05 -1.0507728759907129e-05 -5.7570737669836494e-06 -1.0507728759907129e-05 -7.849524897691791e-07" pbc="T T T"
Si      13.71689747      14.04437964       9.26571280
Si      10.66258895       7.37384767       4.74037524
Si       8.11303589       8.23909510       4.91034066
Si      16.26645054      13.17913221       9.09574738
Si      14.57352964      12.43655237       9.25065876
Si       9.80595679       8.98167494       4.75542929
Si      11.63623587       8.87989274       5.07367748
Si      12.74325056      12.53833457       8.93241056
Si       6.67144959       9.17134944       4.18820345
Si      17.70803684      12.24687787       9.81788459
Si      19.39756108      12.76101535       9.24068569
Si       4.98192534       8.65721196       4.76540235
Si       6.42110170       7.49650377       4.72114237
Si      17.95838472      13.92172354       9.28494567
Si      16.44278883      14.79958824       9.84568217
Si       7.93669759       6.61863906       4.16040587
16
Lattice="13.801066724935916 4.70039451036849 6.0797747545792244 5.278773295393789 12.023891394356742 2.235484931270787 5.301294714550348 4.689579545045599 5.704814084761572" Properties=species:S:1:pos:R:3 unique_starting_index=30 config_type=initial n_minim_iter=20 stress="9.289208746171336e-05 2.4524801990470115e-05 -1.1285147648537944e-05 2.4524801990470115e-05 4.104691091850379e-05 1.0599425834810514e-06 -1.1285147648537944e-05 1.0599425834810514e-06 1.5020908667133347e-05" pbc="T T T"
Si      13.71895555      14.04204024       9.27383506
Si      10.66217919       7.37182521       4.74623871
Si       8.11271345       8.23755511       4.91505414
Si      16.26842129      13.17631034       9.10501963
Si      14.57529598      12.43405671       9.25912312
Si       9.80583876       8.97980874       4.76095065
Si      11.63590717       8.87754571       5.08005228
Si      12.74522756      12.53631974       8.94002150
Si       6.67163821       9.17009895       4.19233853
Si      17.70949653      12.24376650       9.82773524
Si      19.39952527      12.75750069       9.25164189
Si       4.98160947       8.65636476       4.76843188
Si       6.42057223       7.49526248       4.72506551
Si      17.96056251      13.91860297       9.29500826
Si      16.44481161      14.79663884       9.85544234
Si       7.93632312       6.61722661       4.16463143
16
Lattice="13.805871983468352 4.689634155349103 6.105760163601217 5.27228272378796 12.01765934111625 2.247515900147702 5.306725165673845 4.685548354264565 5.715877071244186" Properties=species:S:1:pos:R:3 unique_starting_index=30 config_type=initial n_minim_iter=21 stress="0.0002552404989902955 -5.5399722656734505e-06 -2.9270097960757722e-06 -5.5399722656734505e-06 9.898058669595811e-05 1.7233769230953775e-05 -2.9270097960757722e-06 1.7233769230953775e-05 1.7027372126614413e-05" pbc="T T T"
Si      13.72551432      14.03064109       9.30200846
Si      10.65936556       7.36220077       4.76714467
Si       8.11043263       8.23002520       4.93153337
Si      16.27444725      13.16281665       9.13761977
Si      14.58047452      12.42192396       9.28868026
Si       9.80440536       8.97091789       4.78047288
Si      11.63396096       8.86712310       5.10259441
Si      12.75091891      12.52571875       8.96655872
Si       6.67142308       9.16400196       4.20676589
Si      17.71345679      12.22883989       9.86238724
Si      19.40496626      12.74190762       9.28959653
Si       4.97991361       8.65093423       4.77955660
Si       6.41813890       7.48912983       4.73853863
Si      17.96674097      13.90371202       9.33061451
Si      16.45034837      14.78281423       9.88929916
Si       7.93453151       6.61002762       4.17985398
