14
Lattice="6.235266032911929 1.0574643566069217 -2.920232809398494e-13 0.7160650306849504 3.6404478756929266 1.4766327006090557e-14 5.10772306834797e-13 -1.427371793779543e-13 10.39529626602705" Properties=species:S:1:pos:R:3 unique_starting_index=0 config_type=initial n_minim_iter=1 energy=-2269.2718054624406 free_energy=-2269.2718054624406 pbc="T T T"
Si       1.38498121       1.24893041       8.30104974
Si       2.09068433       1.10002570       3.10340161
Si       5.56634986       3.44898182       2.09424652
Si       4.86064674       3.59788653       7.29189465
Si       5.28040035       1.57417862       3.63276479
Si       4.43053121       1.83224185       8.83041292
Si       1.67093071       3.12373361       6.76253148
Si       2.52079985       2.86567038       1.56488334
Si       2.98572601       1.49591292       4.43157986
Si       0.48993952       0.85304319       9.62922799
Si       3.96560506       3.20199931       5.96371641
Si       6.46139154       3.84486904       0.76606827
Si       3.11763302       0.52873218      -0.00000000
Si       0.35803252       1.82022394       5.19764813
14
Lattice="6.237578760139856 1.058524401657493 -2.9212218134784174e-13 0.7168166324340993 3.641231509660443 1.4740221166818945e-14 5.113796593707627e-13 -1.4290654350174814e-13 10.40764456309376" Properties=species:S:1:pos:R:3 unique_starting_index=0 config_type=initial n_minim_iter=2 stress="0.013086389929200115 0.006109782485007459 -2.1785970168246415e-14 0.006109782485007459 -0.0015097441577879708 -9.979972372326102e-15 -2.1785970168246415e-14 -9.979972372326102e-15 0.011368151452714982" pbc="T T T"
Si       1.38575906       1.24946214       8.31076658
Si       2.09143864       1.10041582       3.10694430
Si       5.56863633       3.45029377       2.09687798
Si       4.86295676       3.59934010       7.30070026
Si       5.28245574       1.57520862       3.63708256
Si       4.43232072       1.83319374       8.84090484
Si       1.67193965       3.12454729       6.77056200
Si       2.52207468       2.86656217       1.56673972
Si       2.98709458       1.49665978       4.43704541
Si       0.49010312       0.85321817       9.64086769
Si       3.96730081       3.20309613       5.97059915
Si       6.46429227       3.84653774       0.76677687
Si       3.11878938       0.52926220      -0.00000000
Si       0.35840832       1.82061575       5.20382228
14
Lattice="6.109614115840829 1.0089809911109715 -2.8651504573883344e-13 0.6677626649451414 3.6732641038817846 1.7590283656239955e-14 5.196651107506928e-13 -1.4522000392481346e-13 10.576182286903771" Properties=species:S:1:pos:R:3 unique_starting_index=0 config_type=initial n_minim_iter=3 stress="0.0030387218505744116 0.005790687353224572 -2.2387006548115914e-14 0.005790687353224572 0.00913782698446763 -1.0554790750945352e-14 -2.2387006548115914e-14 -1.0554790750945352e-14 0.008951192241721405" pbc="T T T"
Si       1.34618051       1.25549386       8.45257957
Si       2.04250788       1.08562869       3.16448843
Si       5.43119627       3.42675124       2.12360272
Si       4.73486890       3.59661641       7.41169386
Si       5.16776662       1.54114637       3.69625252
Si       4.33053589       1.80895717       8.98434366
Si       1.60961016       3.14109872       6.87992977
Si       2.44684089       2.87328793       1.59183862
Si       2.91510785       1.48266911       4.50939682
Si       0.47358054       0.85845344       9.79748796
Si       3.86226893       3.19957599       6.06678547
Si       6.30379624       3.82379165       0.77869433
Si       3.05480706       0.50449050      -0.00000000
Si       0.33388133       1.83663205       5.28809114
14
Lattice="5.951858352933328 0.8121402946429801 -2.8146755163204054e-13 0.5474166660005673 3.5984035560036993 2.2475045358479642e-14 5.376679497317664e-13 -1.5024808561777558e-13 10.942406732015689" Properties=species:S:1:pos:R:3 unique_starting_index=0 config_type=initial n_minim_iter=4 stress="0.017658566031136236 0.011000571659094389 -5.4313605807757146e-14 0.011000571659094389 0.004206284205452941 -2.7123906090883762e-14 -5.4313605807757146e-14 -2.7123906090883762e-14 0.06792167699673357" pbc="T T T"
Si       1.27648648       1.21237417       8.76357217
Si       1.97315103       0.99289776       3.29236880
Si       5.22278853       3.19816968       2.17883457
Si       4.52612399       3.41764609       7.65003793
Si       5.01613515       1.36369375       3.82097598
Si       4.18536072       1.65371847       9.29217934
Si       1.48313987       3.04685010       7.12143076
Si       2.31391430       2.75682538       1.65022739
Si       2.80707855       1.37166767       4.66913806
Si       0.44255896       0.83360426      10.14034143
Si       3.69219647       3.03887618       6.27326867
Si       6.05671606       3.57693959       0.80206531
Si       2.97592918       0.40607015      -0.00000000
Si       0.27370833       1.79920178       5.47120337
14
Lattice="5.996875784645949 0.7754017329218226 -2.8418626883895205e-13 0.5312494375354692 3.597739287885461 2.3258743966492084e-14 5.399733273959626e-13 -1.5089645979496016e-13 10.98936626316035" Properties=species:S:1:pos:R:3 unique_starting_index=0 config_type=initial n_minim_iter=5 stress="0.010046908299049358 0.0005910617776537179 -7.122834685857947e-14 0.0005910617776537179 0.003891972180350737 -3.2739929903818874e-14 -7.122834685857947e-14 -3.2739929903818874e-14 0.01875166437469633" pbc="T T T"
Si       1.27788044       1.21124604       8.80986118
Si       1.98618218       0.97532447       3.31517804
Si       5.25024479       3.16189498       2.17950509
Si       4.54194305       3.39781655       7.67418822
Si       5.05121280       1.33145479       3.83352623
Si       4.20972560       1.63051745       9.32820936
Si       1.47691242       3.04168623       7.15584004
Si       2.31839963       2.74262357       1.66115690
Si       2.82112487       1.35446973       4.68884010
Si       0.44293774       0.83210078      10.18352323
Si       3.70700035       3.01867129       6.30052617
Si       6.08518748       3.54104024       0.80584304
Si       2.99843789       0.38770087      -0.00000000
Si       0.26562472       1.79886964       5.49468313
14
Lattice="5.989775828583006 0.8133643121619548 -2.833175189323244e-13 0.5548215819494495 3.5846307319267257 2.191971483964109e-14 5.378023039127097e-13 -1.5029285179343204e-13 10.94524631143564" Properties=species:S:1:pos:R:3 unique_starting_index=0 config_type=initial n_minim_iter=6 stress="-0.012642173925494445 -0.0066773139327302635 -1.0415128185545539e-13 -0.0066773139327302635 -0.006705235028387984 -4.730429046349066e-14 -1.0415128185545539e-13 -4.730429046349066e-14 -0.03601915592542769" pbc="T T T"
Si       1.28108074       1.22072131       8.77757650
Si       1.99121797       0.97827621       3.30495335
Si       5.26351667       3.17727373       2.16766981
Si       4.55337944       3.41971884       7.64029296
Si       5.05052631       1.35517600       3.80821532
Si       4.21154822       1.65718584       9.28083847
Si       1.49407110       3.04281905       7.13703099
Si       2.33304919       2.74080921       1.66440784
Si       2.82496601       1.36750865       4.67456641
Si       0.44733270       0.83148887      10.14718957
Si       3.71963140       3.03048639       6.27067990
Si       6.09726472       3.56650618       0.79805674
Si       2.99488791       0.40668216      -0.00000000
Si       0.27741079       1.79231537       5.47262316
14
Lattice="5.84335423277883 0.8303839002727008 -2.758932099386112e-13 0.5473743739259734 3.5879848517115582 2.2330014203065178e-14 5.484027370464807e-13 -1.5325754716307352e-13 11.16097804633512" Properties=species:S:1:pos:R:3 unique_starting_index=0 config_type=initial n_minim_iter=7 stress="0.006882788285950226 0.011303534243252932 -9.81422194091392e-14 0.011303534243252932 0.0015457740134042083 -5.661577342288464e-14 -9.81422194091392e-14 -5.661577342288464e-14 0.03767266244438327" pbc="T T T"
Si       1.22104355       1.27221503       8.98618194
Si       1.97432075       0.93696934       3.40569291
Si       5.16968506       3.14615372       2.17479611
Si       4.41640785       3.48139941       7.75528513
Si       4.93551546       1.33350596       3.81435391
Si       4.10320307       1.70606232       9.39484293
Si       1.45521314       3.08486280       7.34662414
Si       2.28752553       2.71230643       1.76613511
Si       2.74629986       1.36803656       4.80151966
Si       0.44906444       0.84114781      10.38200868
Si       3.64442875       3.05033219       6.35945839
Si       5.94166416       3.57722094       0.77896937
Si       2.92167712       0.41519195      -0.00000000
Si       0.27368719       1.79399243       5.58048902
14
Lattice="5.748097621053576 0.6971067629800927 -2.7304957462608376e-13 0.45723854027655453 3.5961387927085275 2.6867803864071176e-14 5.529778154360459e-13 -1.5454374720210955e-13 11.254233908622801" Properties=species:S:1:pos:R:3 unique_starting_index=0 config_type=initial n_minim_iter=8 stress="0.030910184702095757 0.021313691618693 -7.43602043761661e-14 0.021313691618693 0.008210728250386318 -5.3019601499773834e-14 -7.43602043761661e-14 -5.3019601499773834e-14 0.11564659995953437" pbc="T T T"
Si       1.14723437       1.30447028       9.09838176
Si       1.95543371       0.84215250       3.47126480
Si       5.05810179       2.98877528       2.15585215
Si       4.24990245       3.45109306       7.78296911
Si       4.85061805       1.18212114       3.77419718
Si       4.00014765       1.66160840       9.40131414
Si       1.35471811       3.11112442       7.48003672
Si       2.20518851       2.63163715       1.85291977
Si       2.67408774       1.30403732       4.88881418
Si       0.42858034       0.84258546      10.51593114
Si       3.53124842       2.98920824       6.36541973
Si       5.77675582       3.45066010       0.73830277
Si       2.87404881       0.34855338      -0.00000000
Si       0.22861927       1.79806940       5.62711695
14
Lattice="5.7879498572931976 0.6644348126462001 -2.754627453707201e-13 0.43928753088653344 3.616494636902885 2.8026094216115388e-14 5.469035092907483e-13 -1.52858036347781e-13 11.130875188861376" Properties=species:S:1:pos:R:3 unique_starting_index=0 config_type=initial n_minim_iter=9 stress="0.008042353204614567 0.0012607206109724871 -1.0246881969234578e-13 0.0012607206109724871 -0.003087463215121413 -6.530273967513955e-14 -1.0246881969234578e-13 -6.530273967513955e-14 0.004053304279863461" pbc="T T T"
Si       1.14867742       1.30998470       9.00103383
Si       1.96494127       0.83048002       3.43559624
Si       5.07855996       2.97094475       2.12984136
Si       4.26229612       3.45044943       7.69527895
Si       4.88240009       1.14973679       3.72337105
Si       4.01916846       1.65516275       9.28880864
Si       1.34483730       3.13119266       7.40750414
Si       2.20806893       2.62576670       1.84206654
Si       2.69229755       1.29272562       4.84422896
Si       0.42132115       0.84773910      10.40966655
Si       3.53493984       2.98820383       6.28664623
Si       5.80591624       3.43319035       0.72120864
Si       2.89397493       0.33221741      -0.00000000
Si       0.21964377       1.80824732       5.56543759
14
Lattice="5.7519630171369025 0.6441804990627245 -2.739772461078976e-13 0.42010301554976937 3.6355183194055596 2.9227780359440105e-14 5.469867535050134e-13 -1.5288792921720267e-13 11.132701764185057" Properties=species:S:1:pos:R:3 unique_starting_index=0 config_type=initial n_minim_iter=10 stress="0.0021175396603318616 6.897929596974939e-07 -9.331922736728957e-14 6.897929596974939e-07 0.0007844462824519561 -5.91678297139892e-14 -9.331922736728957e-14 -5.91678297139892e-14 -0.0015301703153559733" pbc="T T T"
Si       1.13715309       1.31327375       9.00345270
Si       1.94887993       0.82657566       3.43710182
Si       5.03491295       2.96642507       2.12924906
Si       4.22318610       3.45312316       7.69559994
Si       4.85020002       1.13129961       3.72406397
Si       3.98779602       1.65273030       9.29041485
Si       1.32186602       3.14839921       7.40863779
Si       2.18427002       2.62696852       1.84228691
Si       2.67478109       1.28765983       4.84668328
Si       0.41125193       0.85218958      10.41303416
Si       3.49728495       2.99203899       6.28601849
Si       5.76081410       3.42750924       0.71966761
Si       2.87598151       0.32209025      -0.00000000
Si       0.21005151       1.81775916       5.56635088
14
Lattice="5.718746389992935 0.6213389534766091 -2.7266408524553495e-13 0.4027724733598211 3.6365791776750704 3.009140910961092e-14 5.479386052947925e-13 -1.531611100583629e-13 11.152216043122554" Properties=species:S:1:pos:R:3 unique_starting_index=0 config_type=initial n_minim_iter=11 stress="-0.002193833410143503 -0.0007419163436423547 -9.740842882554265e-14 -0.0007419163436423547 0.001125810824486726 -6.136560706729554e-14 -9.740842882554265e-14 -6.136560706729554e-14 -0.0042149300590627195" pbc="T T T"
Si       1.12543209       1.31041371       9.02052234
Si       1.93532734       0.81854536       3.44441432
Si       4.99608677       2.94750442       2.13169370
Si       4.18619152       3.43937277       7.70780172
Si       4.82109477       1.10509719       3.73046584
Si       3.95841105       1.64520083       9.30657386
Si       1.30042409       3.15282094       7.42175020
Si       2.16310782       2.61271730       1.84564218
Si       2.65917288       1.27550198       4.85634773
Si       0.40158656       0.85345709      10.43245576
Si       3.46234599       2.98241616       6.29586831
Si       5.71993231       3.40446104       0.71976029
Si       2.85937320       0.31066948      -0.00000000
Si       0.20138624       1.81828959       5.57610802
14
Lattice="5.676066036817325 0.5905621050312996 -2.710002517657431e-13 0.3818074958661145 3.625343613253404 3.0962297068451655e-14 5.505726840825427e-13 -1.5391126928979215e-13 11.206104056444502" Properties=species:S:1:pos:R:3 unique_starting_index=0 config_type=initial n_minim_iter=12 stress="-0.005905123730018598 -0.0008949400669364138 -1.013867435876163e-13 -0.0008949400669364138 0.00043749304490427995 -6.230751473888146e-14 -1.013867435876163e-13 -6.230751473888146e-14 -0.0026874705742278714" pbc="T T T"
Si       1.10865652       1.29956603       9.06431816
Si       1.92028025       0.80838683       3.46126613
Si       4.94921701       2.91633969       2.14178590
Si       4.13759329       3.40751888       7.74483792
Si       4.78569516       1.05854830       3.75206246
Si       3.91930765       1.63996667       9.35511449
Si       1.27217838       3.15735742       7.45404160
Si       2.13856589       2.57593905       1.85098957
Si       2.64265672       1.25169587       4.87840576
Si       0.38628004       0.85625699      10.48145778
Si       3.41521681       2.96420985       6.32769830
Si       5.67159349       3.35964873       0.72464627
Si       2.83803302       0.29528105      -0.00000000
Si       0.19090375       1.81267181       5.60305203
14
Lattice="5.712901220884783 0.6125247865318906 -2.7251979524886315e-13 0.4002609370589424 3.617086379255249 2.9936939400028353e-14 5.504186155052108e-13 -1.538849928888748e-13 11.203322502518402" Properties=species:S:1:pos:R:3 unique_starting_index=0 config_type=initial n_minim_iter=13 stress="-0.0011563445140276099 -0.0008917691792499892 -8.934854080017978e-14 -0.0008917691792499892 -0.0011515618768686525 -5.4053389607665484e-14 -8.934854080017978e-14 -5.4053389607665484e-14 -0.0054243870982418245" pbc="T T T"
Si       1.11575150       1.29937311       9.05989391
Si       1.94082958       0.81543247       3.45823266
Si       4.99741066       2.93023805       2.14342859
Si       4.17233258       3.41417870       7.74508985
Si       4.82183274       1.06414162       3.75384137
Si       3.94764956       1.66318875       9.35550262
Si       1.29132942       3.16546954       7.44948113
Si       2.16551260       2.56642242       1.84781988
Si       2.66609154       1.25435554       4.87510322
Si       0.39048954       0.86045004      10.47676448
Si       3.44707062       2.97525562       6.32821928
Si       5.72267262       3.36916113       0.72655803
Si       2.85645061       0.30626239      -0.00000000
Si       0.20013047       1.80854319       5.60166125
14
Lattice="5.709251832880751 0.6050158491287858 -2.724562943738195e-13 0.3959075499413696 3.614434216550056 3.010854217025826e-14 5.51886439103886e-13 -1.5431278166445595e-13 11.233558362348639" Properties=species:S:1:pos:R:3 unique_starting_index=0 config_type=initial n_minim_iter=14 stress="0.004810762538441458 0.0021168391953332102 -8.272218308542666e-14 0.0021168391953332102 0.0020100247650006163 -5.1167171760884e-14 -8.272218308542666e-14 -5.1167171760884e-14 0.016795320027445562" pbc="T T T"
Si       1.10809545       1.30207402       9.08442092
Si       1.94448425       0.80765102       3.46764173
Si       4.99706394       2.91737605       2.14913745
Si       4.16067514       3.41179905       7.76591663
Si       4.82103156       1.05046390       3.77151817
Si       3.94079996       1.66427698       9.38829735
Si       1.28412782       3.16898617       7.46204020
Si       2.16435942       2.55517308       1.84526101
Si       2.66650946       1.24716571       4.88673509
Si       0.38607023       0.86255933      10.50351427
Si       3.43864992       2.97228436       6.34682327
Si       5.71908915       3.35689074       0.73004409
Si       2.85462592       0.30250792      -0.00000000
Si       0.19795377       1.80721711       5.61677918
14
Lattice="5.732014164608165 0.6425221597411114 -2.7307216056090205e-13 0.41799972341881797 3.6287027822836673 2.921345905926713e-14 5.468556459721239e-13 -1.5292745336585332e-13 11.131642037200852" Properties=species:S:1:pos:R:3 unique_starting_index=0 config_type=initial n_minim_iter=15 stress="0.0018567770952629178 0.0016458036176357168 -9.36968416933855e-14 0.0016458036176357168 0.0018672872822706335 -6.065844357211514e-14 -9.36968416933855e-14 -6.065844357211514e-14 0.006711290202525267" pbc="T T T"
Si       1.10149834       1.33625936       8.99830435
Si       1.97350861       0.79935311       3.43248334
Si       5.04851555       2.93496559       2.13333768
Si       4.17650528       3.47187183       7.69915870
Si       4.85348745       1.06664044       3.75417891
Si       3.95353366       1.71149420       9.31999993
Si       1.29652644       3.20458451       7.37746313
Si       2.19648023       2.55973075       1.81164211
Si       2.69316107       1.26218106       4.84502389
Si       0.38184587       0.87343142      10.41084491
Si       3.45685282       3.00904389       6.28661815
Si       5.76816802       3.39779353       0.72079713
Si       2.86600708       0.32126108      -0.00000000
Si       0.20899986       1.81435139       5.56582102
14
Lattice="5.736483506299385 0.6234948529160033 -2.735660216387416e-13 0.4091139441577021 3.618619811877174 2.950562545303871e-14 5.468423897174358e-13 -1.529418546119334e-13 11.13176537980625" Properties=species:S:1:pos:R:3 unique_starting_index=0 config_type=initial n_minim_iter=16 stress="0.0005105294546686765 -0.0009699274877806848 -4.863088089048449e-14 -0.0009699274877806848 -0.0015983961120143077 -3.2085918112472274e-14 -4.863088089048449e-14 -3.2085918112472274e-14 -0.002859719442484902" pbc="T T T"
Si       1.09642393       1.33882863       8.99758835
Si       1.97637479       0.78222870       3.43170566
Si       5.04917352       2.90328603       2.13417703
Si       4.16922266       3.45988596       7.70005972
Si       4.85994719       1.05231095       3.75568365
Si       3.94933504       1.69224123       9.32156634
Si       1.28565026       3.18980371       7.37608173
Si       2.19626241       2.54987343       1.81019904
Si       2.69337974       1.25498454       4.84191557
Si       0.37941898       0.86607280      10.40779826
Si       3.45221771       2.98713013       6.28984981
Si       5.76617847       3.37604187       0.72396712
Si       2.86824175       0.31174743      -0.00000000
Si       0.20455697       1.80930991       5.56588269
14
Lattice="5.743745403879295 0.6543253338314672 -2.7351217567732153e-13 0.42672346694312346 3.625841511919148 2.8734047241003764e-14 5.42988511329027e-13 -1.5188509242312643e-13 11.053793926422413" Properties=species:S:1:pos:R:3 unique_starting_index=0 config_type=initial n_minim_iter=17 stress="0.006866684021806271 0.0063822277062528495 -2.4384497977398744e-14 0.0063822277062528495 0.0015044856222635272 -1.9391843691068352e-14 -2.4384497977398744e-14 -1.9391843691068352e-14 0.030006561159086422" pbc="T T T"
Si       1.07701348       1.38239366       8.91887123
Si       2.00822096       0.75768977       3.39197427
Si       5.09345539       2.89777319       2.13492269
Si       4.16224791       3.52247708       7.66181965
Si       4.89547585       1.05234989       3.74567740
Si       3.93350399       1.74205886       9.27257436
Si       1.27499302       3.22781695       7.30811653
Si       2.23696488       2.53810798       1.78121957
Si       2.71657185       1.27309425       4.79275755
Si       0.36866259       0.86698917      10.31965451
Si       3.45389702       3.00707259       6.26103638
Si       5.80180628       3.41317768       0.73413942
Si       2.87187270       0.32716267      -0.00000000
Si       0.21336173       1.81292076       5.52689696
14
Lattice="5.736476104850077 0.6361087525993911 -2.734134669883463e-13 0.41492810610047287 3.627756855461812 2.933622799005189e-14 5.438801767227262e-13 -1.5214482695412078e-13 11.072171450400905" Properties=species:S:1:pos:R:3 unique_starting_index=0 config_type=initial n_minim_iter=18 stress="-0.0006206900694567605 0.00019149702792369526 -2.884587402604212e-14 0.00019149702792369526 -0.0017344714106607708 -2.0870654540801876e-14 -2.884587402604212e-14 -2.0870654540801876e-14 -0.0005260013266726845" pbc="T T T"
Si       1.07303628       1.37646247       8.93071305
Si       2.00266582       0.75547034       3.39462733
Si       5.07836793       2.88740314       2.14145840
Si       4.14873839       3.50839527       7.67754412
Si       4.89149382       1.03195201       3.74834815
Si       3.92068439       1.73608955       9.28443387
Si       1.25991039       3.23191360       7.32382330
Si       2.23071982       2.52777606       1.78773758
Si       2.71225431       1.26565748       4.79551992
Si       0.36344779       0.86627532      10.33160564
Si       3.43914990       2.99820812       6.27665153
Si       5.78795642       3.39759029       0.74056581
Si       2.86823805       0.31805438      -0.00000000
Si       0.20746405       1.81387843       5.53608573
14
Lattice="5.73739816595645 0.6255567192961393 -2.736121758985338e-13 0.40695128249045465 3.6390893847546906 2.988008244692852e-14 5.429375739814046e-13 -1.5189350122316392e-13 11.053260802981793" Properties=species:S:1:pos:R:3 unique_starting_index=0 config_type=initial n_minim_iter=19 stress="0.0028492407495809098 0.0012302349580694488 -3.314605382630272e-14 0.0012302349580694488 0.0008105617044708763 -2.531587084923403e-14 -3.314605382630272e-14 -2.531587084923403e-14 0.00841966310907178" pbc="T T T"
Si       1.06168205       1.39225398       8.91247856
Si       2.01049267       0.74006907       3.38584815
Si       5.08266739       2.87239212       2.14078225
Si       4.13385678       3.52457704       7.66741265
Si       4.90205575       1.01480776       3.73934560
Si       3.90751714       1.74307202       9.26597600
Si       1.24229370       3.24983835       7.31391520
Si       2.23683231       2.52157409       1.78728480
Si       2.71461117       1.26598043       4.78395040
Si       0.35756355       0.86634262      10.31058080
Si       3.42973827       2.99866567       6.26931040
Si       5.78678590       3.39830348       0.74268000
Si       2.86869908       0.31277836      -0.00000000
Si       0.20347564       1.81954469       5.52663040
14
Lattice="5.744612591393038 0.6347124892034661 -2.738547470185724e-13 0.4115908982519553 3.6481373136590287 2.977044841195532e-14 5.409011203670683e-13 -1.5134476792031613e-13 11.012282125129259" Properties=species:S:1:pos:R:3 unique_starting_index=0 config_type=initial n_minim_iter=20 stress="0.003685054034132294 0.002119708618949813 -4.308678589328858e-14 0.002119708618949813 0.0022049925154602017 -3.408527460007456e-14 -4.308678589328858e-14 -3.408527460007456e-14 0.011885811013877498" pbc="T T T"
Si       1.05618392       1.40856986       8.87375993
Si       2.02191783       0.73285504       3.36761887
Si       5.10001957       2.87427994       2.13852219
Si       4.13428566       3.54999476       7.64466325
Si       4.92123865       1.01765573       3.73134763
Si       3.90147569       1.75848166       9.23748869
Si       1.23496484       3.26519407       7.28093449
Si       2.25472780       2.52436815       1.77479343
Si       2.72465694       1.27532422       4.76016348
Si       0.35344480       0.86610068      10.26630454
Si       3.43154655       3.00752559       6.25211864
Si       5.80275869       3.41674912       0.74597758
Si       2.87230630       0.31735624      -0.00000000
Si       0.20579545       1.82406866       5.50614106
14
Lattice="5.743855712005394 0.6371792340646709 -2.7379806276012674e-13 0.4128221512375243 3.6488568568798065 2.971369278942635e-14 5.403940248172125e-13 -1.5122278216820572e-13 11.002413006221428" Properties=species:S:1:pos:R:3 unique_starting_index=0 config_type=initial n_minim_iter=21 stress="-0.001438588563336614 -0.0018757656974713554 -3.434596162913702e-14 -0.0018757656974713554 -0.0010207640039557337 -2.652393783016297e-14 -3.434596162913702e-14 -2.652393783016297e-14 -0.008172556329939658" pbc="T T T"
Si       1.05454237       1.41114985       8.86820104
Si       2.02379657       0.73186819       3.36699454
Si       5.10213550       2.87488624       2.13421196
Si       4.13288130       3.55416790       7.63541847
Si       4.92567018       1.01946141       3.72790680
Si       3.89652446       1.76073587       9.22911331
Si       1.23100768       3.26657468       7.27450620
Si       2.26015340       2.52530022       1.77329970
Si       2.72614461       1.27681945       4.75803513
Si       0.35219432       0.86619860      10.25924163
Si       3.43053326       3.00921664       6.24437788
Si       5.80448354       3.41983750       0.74317138
Si       2.87192786       0.31858962      -0.00000000
Si       0.20641108       1.82442843       5.50120650
