22
Lattice="5.337579268020537 -1.5868482777627426 1.5550053395057124 -4.230286812889949 11.007833335714999 -3.8560002748251354 0.9505339779136511 -5.028293526352843 10.168474754717014" Properties=species:S:1:pos:R:3 unique_starting_index=18 config_type=initial n_minim_iter=16 energy=-3582.0298527900063 free_energy=-3582.0298527900063 pbc="T T T"
Si       0.30509733       8.39892513      -0.30182496
Si       2.31660041      -0.34395237       5.79773200
Si       0.24517037      -4.74888281      10.13964690
Si       4.67789926      -3.44210373      10.03892334
Si      -1.34055467      -0.04145936       7.20612354
Si       4.29870257       2.53371838       2.02685643
Si       2.48426610      -0.16606391       2.07274225
Si       1.98902444       0.74484931       7.94856349
Si       2.69205599      -4.91972632       9.97084812
Si       0.04349358       0.29654962       5.36018478
Si       4.43529334      -0.64358959       4.87826330
Si      -0.65020380       4.40056566       4.45511162
Si       0.63437379      -1.98344048       5.14932628
Si      -2.18565502       7.30846691      -2.35664205
Si       2.23747828       2.05459759       5.42346526
Si      -0.70437232       6.26388306      -0.66125420
Si       1.19598044      -1.96548210       2.86506559
Si       5.68940889      -5.09096787       8.57539128
Si       2.17349622       2.08906315       2.97726517
Si       0.33888309       3.21089700       6.25599018
Si       0.00256162       3.00171239       2.47309037
Si       1.82884409      -1.65334052       7.74915920
