16
Lattice="13.746611451350265 3.6047494731764167 7.173970994887692 4.490616206334237 11.375736541998895 2.7422781340043594 5.342480856618325 4.236751210558816 6.106550495305043" Properties=species:S:1:pos:R:3 unique_starting_index=30 config_type=initial n_minim_iter=1 energy=-2733.961613372554 free_energy=-2733.961613372554 pbc="T T T"
Si      13.47062679      12.84418557      10.45336260
Si      10.10908172       6.37305166       5.56943703
Si       7.62946808       7.45974491       5.58998749
Si      15.95024043      11.75749232      10.43281213
Si      14.19475178      11.16113567      10.41168698
Si       9.38495673       8.05610155       5.61111265
Si      11.15390970       7.76686828       6.09183431
Si      12.42579881      11.45036894       9.93096531
Si       6.31960212       8.52134234       4.80836051
Si      17.26010639      10.69589488      11.21443911
Si      19.01360294      11.15065787      10.80741212
Si       4.56610558       8.06657936       5.21538751
Si       5.93534922       6.82034956       5.19624208
Si      17.64435930      12.39688766      10.82655754
Si      16.10527601      13.38994624      11.13008104
Si       7.47443251       5.82729099       4.89271858
16
Lattice="13.747276506938332 3.604458012950302 7.173655855045694 4.490797202146163 11.375527646617211 2.741869945843775 5.342723581654598 4.2365135827113445 6.106259683844714" Properties=species:S:1:pos:R:3 unique_starting_index=30 config_type=initial n_minim_iter=2 stress="0.0016383582586548698 0.00020184045518454566 -0.00016496247136471475 0.00020184045518454566 -4.1344735782463897e-05 -0.00018905772709321803 -0.00016496247136471475 -0.00018905772709321803 -8.9688471676293e-06" pbc="T T T"
Si      13.47127069      12.84374207      10.45261752
Si      10.10952660       6.37275717       5.56916797
Si       7.62976760       7.45958832       5.58957465
Si      15.95102969      11.75691092      10.43221083
Si      14.19538029      11.16072062      10.41106383
Si       9.38541700       8.05577862       5.61072165
Si      11.15442491       7.76656419       6.09138107
Si      12.42637238      11.44993505       9.93040441
Si       6.31985643       8.52105803       4.80801822
Si      17.26094086      10.69544121      11.21376726
Si      19.01453479      11.15018152      10.80672389
Si       4.56626250       8.06631772       5.21506159
Si       5.93555499       6.82014640       5.19590889
Si      17.64524230      12.39635284      10.82587659
Si      16.10604023      13.38950142      11.12943708
Si       7.47475706       5.82699782       4.89234840
16
Lattice="13.74669343973911 3.6041850508550124 7.1735725984573975 4.490484141047216 11.375379938254097 2.741714410271264 5.34248434220712 4.236353170359198 6.106132427917899" Properties=species:S:1:pos:R:3 unique_starting_index=30 config_type=initial n_minim_iter=3 stress="-0.0002280658369512199 0.00019586764647880307 -0.0002861547039383313 0.00019586764647880307 -0.0007101274947373053 -0.00024090606190998526 -0.0002861547039383313 -0.00024090606190998526 -0.0006008554053529671" pbc="T T T"
Si      13.47063030      12.84341244      10.45230253
Si      10.10903162       6.37250572       5.56911691
Si       7.62935296       7.45947402       5.58940512
Si      15.95030896      11.75644413      10.43201432
Si      14.19468823      11.16039888      10.41083056
Si       9.38497369       8.05551928       5.61058888
Si      11.15389117       7.76630717       6.09121324
Si      12.42577075      11.44961099       9.93020619
Si       6.31949290       8.52085192       4.80790425
Si      17.26016902      10.69506624      11.21351519
Si      19.01368554      11.14977041      10.80648075
Si       4.56597638       8.06614775       5.21493868
Si       5.93520891       6.82000451       5.19577893
Si      17.64445301      12.39591365      10.82564051
Si      16.10528127      13.38915177      11.12923041
Si       7.47438065       5.82676639       4.89218903
16
Lattice="13.746596664627102 3.604099276409992 7.174124986705507 4.490239910721546 11.375804204078426 2.7419837788295736 5.342464308877197 4.236470141053079 6.106459513561271" Properties=species:S:1:pos:R:3 unique_starting_index=30 config_type=initial n_minim_iter=4 stress="-4.189607323950051e-06 -7.069644880913779e-05 -4.125877961625142e-05 -7.069644880913779e-05 6.822127373551582e-05 -4.8850711186219116e-05 -4.125877961625142e-05 -4.8850711186219116e-05 0.000159792206098768" pbc="T T T"
Si      13.47043347      12.84379084      10.45296290
Si      10.10886741       6.37258278       5.56960538
Si       7.62919512       7.45974540       5.58978342
Si      15.95010576      11.75662822      10.43278485
Si      14.19448927      11.16067967      10.41153403
Si       9.38481161       8.05569396       5.61103425
Si      11.15371414       7.76645365       6.09168552
Si      12.42558675      11.44991997       9.93088276
Si       6.31931700       8.52111957       4.80828108
Si      17.25998389      10.69525405      11.21428720
Si      19.01346035      11.14993427      10.80728360
Si       4.56584053       8.06643936       5.21528468
Si       5.93506921       6.82023257       5.19612182
Si      17.64423167      12.39614105      10.82644645
Si      16.10505107      13.38951331      11.13006395
Si       7.47424981       5.82686032       4.89250433
16
Lattice="13.746813457280647 3.6043903762065552 7.174307710501227 4.490424827961906 11.375949311161639 2.7422236775595406 5.342661885311036 4.236657974528595 6.10647543793738" Properties=species:S:1:pos:R:3 unique_starting_index=30 config_type=initial n_minim_iter=5 stress="4.47169240313181e-05 0.00022692441116797349 5.7217097839267725e-05 0.00022692441116797349 0.0001448826646897119 0.00027684802564646136 5.7217097839267725e-05 0.00027684802564646136 -0.00017816795962044776" pbc="T T T"
Si      13.47086177      12.84419639      10.45318205
Si      10.10903840       6.37280127       5.56982477
Si       7.62939162       7.46000179       5.58993650
Si      15.95050855      11.75699587      10.43307033
Si      14.19488365      11.16106188      10.41177660
Si       9.38501652       8.05593578       5.61123022
Si      11.15394956       7.76672759       6.09191788
Si      12.42595061      11.45027007       9.93108895
Si       6.31951723       8.52134326       4.80846449
Si      17.26038294      10.69565440      11.21454234
Si      19.01387612      11.15038976      10.80762617
Si       4.56602405       8.06660790       5.21538066
Si       5.93523496       6.82042704       5.19622931
Si      17.64466521      12.39657062      10.82677751
Si      16.10550575      13.38994589      11.13040839
Si       7.47439442       5.82705177       4.89259844
16
Lattice="13.746860728576841 3.6031675353272843 7.17467012582147 4.489910816363152 11.375127087545996 2.7418508342701955 5.342704713864682 4.23591423013578 6.106388602570261" Properties=species:S:1:pos:R:3 unique_starting_index=30 config_type=initial n_minim_iter=6 stress="0.00012128674027590417 -0.0003185222031425648 0.00012679936009215632 -0.0003185222031425648 8.716782273966679e-05 -6.999736921816628e-05 0.00012679936009215632 -6.999736921816628e-05 -0.0003721941282596123" pbc="T T T"
Si      13.47069944      12.84251081      10.45291707
Si      10.10877682       6.37169804       5.56999249
Si       7.62912577       7.45913828       5.58985882
Si      15.95035049      11.75507057      10.43305075
Si      14.19476454      11.15933115      10.41175485
Si       9.38471172       8.05487770       5.61115471
Si      11.15371958       7.76555546       6.09200227
Si      12.42575668      11.44865339       9.93090729
Si       6.31921929       8.52056814       4.80830784
Si      17.26025697      10.69364071      11.21460172
Si      19.01376794      11.14845744      10.80782105
Si       4.56570832       8.06575142       5.21508851
Si       5.93497966       6.81960164       5.19609403
Si      17.64449660      12.39460721      10.82681554
Si      16.10535439      13.38800610      11.13047746
Si       7.47412187       5.82620275       4.89243210
16
Lattice="13.746690096970317 3.6029578752368594 7.175167036652024 4.4899698219461905 11.37457933480224 2.7417636821596565 5.342740208632575 4.235615920667771 6.106642567279817" Properties=species:S:1:pos:R:3 unique_starting_index=30 config_type=initial n_minim_iter=7 stress="-4.1380263676725656e-05 0.00014924624235950398 -0.00022534171560512062 0.00014924624235950398 -2.05892279313681e-05 -1.7802699311134607e-05 -0.00022534171560512062 -1.7802699311134607e-05 0.00024552597460786356" pbc="T T T"
Si      13.47079510      12.84181763      10.45323412
Si      10.10860503       6.37133550       5.57033917
Si       7.62901961       7.45881269       5.59007831
Si      15.95038051      11.75434044      10.43349498
Si      14.19476384      11.15865072      10.41221139
Si       9.38463629       8.05450241       5.61136189
Si      11.15358387       7.76517006       6.09231693
Si      12.42581626      11.44798307       9.93125635
Si       6.31924400       8.52022952       4.80845722
Si      17.26015612      10.69292361      11.21511607
Si      19.01370242      11.14789582      10.80837653
Si       4.56569770       8.06525731       5.21519676
Si       5.93491639       6.81922291       5.19627694
Si      17.64448373      12.39393022      10.82729635
Si      16.10544006      13.38725037      11.13105871
Si       7.47396007       5.82590276       4.89251458
16
Lattice="13.747068606791604 3.602101391383245 7.176239311700734 4.48976491631882 11.373796855867974 2.7418381852008245 5.343118381676168 4.235060316667915 6.106885889916047" Properties=species:S:1:pos:R:3 unique_starting_index=30 config_type=initial n_minim_iter=8 stress="3.577758384783801e-05 4.950079929223467e-05 0.0002017756287887375 4.950079929223467e-05 -0.00022561868049138085 -2.2810117818667955e-05 0.0002017756287887375 -2.2810117818667955e-05 9.864388091656758e-05" pbc="T T T"
Si      13.47127583      12.84046439      10.45387702
Si      10.10867607       6.37049417       5.57108637
Si       7.62902945       7.45811971       5.59048253
Si      15.95092246      11.75283885      10.43448086
Si      14.19517946      11.15724111      10.41303771
Si       9.38477244       8.05371745       5.61192568
Si      11.15360809       7.76423173       6.09306464
Si      12.42634381      11.44672683       9.93189875
Si       6.31934244       8.51960297       4.80876752
Si      17.26060947      10.69135559      11.21619587
Si      19.01417715      11.14640838      10.80966452
Si       4.56577475       8.06455018       5.21529886
Si       5.93500067       6.81855471       5.19655017
Si      17.64495124      12.39240385      10.82841321
Si      16.10600470      13.38571291      11.13215205
Si       7.47394721       5.82524565       4.89281134
16
Lattice="13.746822829633004 3.6017735633089023 7.176028915123007 4.489414032069453 11.373941455498104 2.741683777184456 5.342961226213427 4.234980201494829 6.1066715549443975" Properties=species:S:1:pos:R:3 unique_starting_index=30 config_type=initial n_minim_iter=9 stress="3.0449408642577028e-05 -0.00011951518883782835 -0.00023634936688330128 -0.00011951518883782835 9.474205201026243e-05 0.00012180176363173781 -0.00023634936688330128 0.00012180176363173781 -0.00012851562454512154" pbc="T T T"
Si      13.47086390      12.84035880      10.45348245
Si      10.10833419       6.37033642       5.57090180
Si       7.62867470       7.45810525       5.59026803
Si      15.95052338      11.75258997      10.43411621
Si      14.19475984      11.15701781      10.41266534
Si       9.38443825       8.05367741       5.61171891
Si      11.15320577       7.76406360       6.09286098
Si      12.42599232      11.44663162       9.93152327
Si       6.31907079       8.51966356       4.80857975
Si      17.26012730      10.69103166      11.21580450
Si      19.01373698      11.14608736      10.80929525
Si       4.56546111       8.06460786       5.21508900
Si       5.93470730       6.81853619       5.19634375
Si      17.64449079      12.39215903      10.82804050
Si      16.10557877      13.38554794      11.13181062
Si       7.47361932       5.82514728       4.89257362
16
Lattice="13.747104952567323 3.6010028338084474 7.177580503699382 4.489434762438602 11.373882731841206 2.741221116998691 5.343541461732535 4.234433111853499 6.106910272118976" Properties=species:S:1:pos:R:3 unique_starting_index=30 config_type=initial n_minim_iter=10 stress="-0.00011481141938946831 0.00022359611642634226 5.153022222336833e-05 0.00022359611642634226 0.00047626179017503647 -0.00033719911905488183 5.153022222336833e-05 -0.00033719911905488183 -0.00019440054714086377" pbc="T T T"
Si      13.47178256      12.83950609      10.45405626
Si      10.10829862       6.36981259       5.57165563
Si       7.62880551       7.45777545       5.59055635
Si      15.95127566      11.75154322      10.43515554
Si      14.19553380      11.15597045      10.41348535
Si       9.38454738       8.05334823       5.61222655
Si      11.15319524       7.76339294       6.09372098
Si      12.42688594      11.44592574       9.93199092
Si       6.31940827       8.51942098       4.80859930
Si      17.26067291      10.68989770      11.21711259
Si      19.01437304      11.14498673      10.81079903
Si       4.56570813       8.06433195       5.21491286
Si       5.93484792       6.81817251       5.19640690
Si      17.64523326      12.39114616      10.82930499
Si      16.10654420      13.38466846      11.13284701
Si       7.47353698       5.82465022       4.89286488
16
Lattice="13.747527535199414 3.5994853348021367 7.179812351442607 4.488840539642132 11.372258729992085 2.7418871364871005 5.343991275519905 4.233506967085141 6.107831988881208" Properties=species:S:1:pos:R:3 unique_starting_index=30 config_type=initial n_minim_iter=11 stress="4.325202910023495e-05 -4.7163203436487324e-05 -1.2963332599997156e-05 -4.7163203436487324e-05 -0.00017183746365134222 9.178545175000889e-05 -1.2963332599997156e-05 9.178545175000889e-05 7.381922492826225e-06" pbc="T T T"
Si      13.47229764      12.83697557      10.45630809
Si      10.10806171       6.36827546       5.57322339
Si       7.62863278       7.45644737       5.59178417
Si      15.95172657      11.74880367      10.43774731
Si      14.19599232      11.15342112      10.41579971
Si       9.38436703       8.05182992       5.61373177
Si      11.15294787       7.76150544       6.09559001
Si      12.42741148      11.44374560       9.93394147
Si       6.31932779       8.51802370       4.80961102
Si      17.26103156      10.68722734      11.21992046
Si      19.01481421      11.14208098      10.81382101
Si       4.56554514       8.06317006       5.21571047
Si       5.93466483       6.81701354       5.19730369
Si      17.64569452      12.38823749      10.83222778
Si      16.10711340      13.38193158      11.13562779
Si       7.47324595       5.82331946       4.89390368
16
Lattice="13.747795788291743 3.597811215340596 7.182785753665936 4.488275317571156 11.371503927482694 2.7419993390306447 5.344640920678684 4.232525423769921 6.108822421983001" Properties=species:S:1:pos:R:3 unique_starting_index=30 config_type=initial n_minim_iter=12 stress="-1.068411271428146e-05 4.3833449073286036e-05 -3.8543036402864725e-05 4.3833449073286036e-05 6.117663355382716e-05 -4.011993962777984e-05 -3.8543036402864725e-05 -4.011993962777984e-05 -5.628945347626226e-05" pbc="T T T"
Si      13.47321182      12.83500052      10.45861340
Si      10.10750021       6.36684005       5.57499412
Si       7.62835151       7.45533227       5.59296326
Si      15.95236052      11.74650830      10.44064425
Si      14.19649446      11.15120612      10.41829605
Si       9.38421756       8.05063445       5.61531146
Si      11.15249225       7.76001937       6.09774466
Si      12.42821978      11.44182120       9.93586285
Si       6.31922154       8.51705788       4.81039613
Si      17.26149049      10.68478268      11.22321138
Si      19.01526448      11.13941166      10.81745375
Si       4.56544755       8.06242891       5.21615376
Si       5.93444975       6.81619520       5.19805037
Si      17.64626228      12.38564537      10.83555715
Si      16.10791638      13.37965270      11.13859948
Si       7.47279564       5.82218787       4.89500804
16
Lattice="13.748303449345578 3.5952738159871074 7.187246753947154 4.487162515079161 11.370000142905848 2.742886749654734 5.345435613446444 4.231162070353247 6.110661484055432" Properties=species:S:1:pos:R:3 unique_starting_index=30 config_type=initial n_minim_iter=13 stress="2.5410233247107e-05 2.966086890566893e-06 1.991490692162845e-05 2.966086890566893e-06 -8.478547578596852e-05 9.926056344401668e-06 1.991490692162845e-05 9.926056344401668e-06 -3.0232812762798237e-05" pbc="T T T"
Si      13.47401494      12.83184980      10.46290575
Si      10.10688664       6.36458623       5.57788924
Si       7.62787059       7.45350666       5.59508687
Si      15.95303099      11.74292937      10.44570812
Si      14.19706427      11.14799905      10.42270069
Si       9.38383731       8.04843698       5.61809430
Si      11.15190279       7.75774816       6.10118542
Si      12.42899879      11.43868787       9.93960957
Si       6.31915034       8.51540741       4.81209013
Si      17.26175124      10.68102862      11.22870486
Si      19.01591489      11.13528765      10.82330959
Si       4.56498669       8.06114838       5.21748540
Si       5.93405417       6.81477506       5.19970813
Si      17.64684741      12.38166097      10.84108686
Si      16.10865592      13.37593776      11.14371700
Si       7.47224566       5.82049827       4.89707799
16
Lattice="13.74854422609834 3.5921855370558315 7.192754205586888 4.485533913107228 11.369038235126167 2.743849667930998 5.3462058767073986 4.229696402113357 6.112965433192463" Properties=species:S:1:pos:R:3 unique_starting_index=30 config_type=initial n_minim_iter=14 stress="2.9951416068758963e-05 -5.950036137624108e-06 -2.9734830272377963e-05 -5.950036137624108e-06 1.3206822745152055e-05 -1.5375735157099216e-05 -2.9734830272377963e-05 -1.5375735157099216e-05 -8.048610076937517e-05" pbc="T T T"
Si      13.47448956      12.82871741      10.46819411
Si      10.10579445       6.36220277       5.58137520
Si       7.62693201       7.45176802       5.59765767
Si      15.95335201      11.73915215      10.45191164
Si      14.19740294      11.14472782      10.42801278
Si       9.38288108       8.04619236       5.62155653
Si      11.15069994       7.75542864       6.10527177
Si      12.42958407      11.43549154       9.94429754
Si       6.31877861       8.51394402       4.81410787
Si      17.26150541      10.67697615      11.23546144
Si      19.01587570      11.13092538      10.83063202
Si       4.56440831       8.05999479       5.21893728
Si       5.93308177       6.81342750       5.20175938
Si      17.64720225      12.37749267      10.84780993
Si      16.10897152      13.37215161      11.14995002
Si       7.47131250       5.81876856       4.89961929
16
Lattice="13.749052039228541 3.588807317231228 7.200227259875387 4.483785523979271 11.367901671819657 2.7455886351690006 5.347308481735649 4.228125610633314 6.116386148892725" Properties=species:S:1:pos:R:3 unique_starting_index=30 config_type=initial n_minim_iter=15 stress="8.517192346846027e-05 -2.2133599479272656e-05 2.8108492268392268e-05 -2.2133599479272656e-05 -4.961198779572258e-05 -7.790999318629084e-06 2.8108492268392268e-05 -7.790999318629084e-06 -4.637174957598655e-05" pbc="T T T"
Si      13.47547281      12.82509559      10.47585870
Si      10.10467323       6.35973901       5.58634334
Si       7.62584493       7.44979323       5.60150114
Si      15.95430112      11.73504137      10.46070091
Si      14.19812007      11.14104061      10.43562883
Si       9.38202598       8.04379399       5.62657321
Si      11.14980332       7.75271051       6.11081806
Si      12.43034273      11.43212409       9.95138398
Si       6.31842200       8.51224707       4.81723418
Si      17.26172404      10.67258753      11.24496787
Si      19.01634704      11.12609291      10.84091952
Si       4.56379900       8.05874169       5.22128253
Si       5.93213890       6.81177283       5.20486343
Si      17.64800715      12.37306177      10.85733861
Si      16.10966488      13.36789395      11.15884164
Si       7.47048117       5.81694065       4.90336040
16
Lattice="13.749205476049612 3.5862850688784143 7.206814003817934 4.482297076900643 11.367457988252106 2.7472780410476743 5.34815360774327 4.227078056567365 6.119524498647935" Properties=species:S:1:pos:R:3 unique_starting_index=30 config_type=initial n_minim_iter=16 stress="0.00010882600236614189 4.135418450341855e-06 1.8716436755268885e-06 4.135418450341855e-06 -3.4955969989130094e-05 1.4398847165006689e-05 1.8716436755268885e-06 1.4398847165006689e-05 -6.21504315518602e-05" pbc="T T T"
Si      13.47623828      12.82260534      10.48284098
Si      10.10341788       6.35821577       5.59077556
Si       7.62489826       7.44850325       5.60497410
Si      15.95475790      11.73231786      10.46864244
Si      14.19845783      11.13870362      10.44273937
Si       9.38119833       8.04211749       5.63087717
Si      11.14870719       7.75085364       6.11569897
Si      12.43094897      11.42996747       9.95791757
Si       6.31796776       8.51134292       4.82023255
Si      17.26168840      10.66947820      11.25338399
Si      19.01642569      11.12268016      10.84998963
Si       4.56323047       8.05814096       5.22362691
Si       5.93116262       6.81061939       5.20770879
Si      17.64849354      12.37020173      10.86590775
Si      16.10998655      13.36503412      11.16686028
Si       7.46966961       5.81578699       4.90675626
16
Lattice="13.749319942807265 3.5843161149492917 7.213090462402795 4.480962118515016 11.367752646442643 2.7490366912480297 5.348855140200723 4.226447504736279 6.122762087297754" Properties=species:S:1:pos:R:3 unique_starting_index=30 config_type=initial n_minim_iter=17 stress="0.00010953764983002932 -2.696517746028312e-05 4.779168814809357e-06 -2.696517746028312e-05 -1.0041418465031003e-05 2.4746025158845395e-05 4.779168814809357e-06 2.4746025158845395e-05 -2.7222536284336476e-05" pbc="T T T"
Si      13.47669637      12.82128524      10.48963144
Si      10.10244083       6.35723102       5.59525780
Si       7.62404391       7.44777967       5.60864800
Si      15.95509329      11.73073659      10.47624124
Si      14.19869437      11.13724829      10.45006890
Si       9.38044284       8.04126797       5.63482034
Si      11.14766954       7.74965478       6.12044714
Si      12.43146767      11.42886149       9.96444210
Si       6.31768612       8.51090249       4.82345049
Si      17.26145108      10.66761378      11.26143875
Si      19.01649551      11.12060615      10.85890563
Si       4.56264169       8.05791012       5.22598361
Si       5.93037221       6.81022336       5.21037302
Si      17.64876499      12.36829290      10.87451622
Si      16.11005667      13.36339607      11.17467678
Si       7.46908053       5.81512019       4.91021246
16
Lattice="13.749694666725095 3.5838364406269863 7.216393473783627 4.480836472552628 11.36805794661202 2.7498605786143835 5.349484166880334 4.226291018159888 6.1244427199530795" Properties=species:S:1:pos:R:3 unique_starting_index=30 config_type=initial n_minim_iter=18 stress="9.325095183143106e-05 -3.0502594810061094e-06 6.852344820406374e-06 -3.0502594810061094e-06 3.97340882190011e-07 1.0320663433394389e-05 6.852344820406374e-06 1.0320663433394389e-05 -1.2733450204753717e-05" pbc="T T T"
Si      13.47767689      12.82109663      10.49312713
Si      10.10233841       6.35708877       5.59756964
Si       7.62410449       7.44770873       5.61042863
Si      15.95591082      11.73047667      10.48026815
Si      14.19958946      11.13691295      10.45380059
Si       9.38042584       8.04127245       5.63689618
Si      11.14754907       7.74953395       6.12285735
Si      12.43246624      11.42865146       9.96783942
Si       6.31790211       8.51078653       4.82511985
Si      17.26211320      10.66739887      11.26557692
Si      19.01727314      11.12035745      10.86347644
Si       4.56274217       8.05782795       5.22722033
Si       5.93052523       6.81015488       5.21176185
Si      17.64949008      12.36803053      10.87893493
Si      16.11096981      13.36309850      11.17865933
Si       7.46904550       5.81508690       4.91203744
16
Lattice="13.749889708913722 3.5837382427379554 7.217558002944246 4.480865568686094 11.36810949186186 2.7501904472743406 5.349748312155775 4.226254253418582 6.125033557366984" Properties=species:S:1:pos:R:3 unique_starting_index=30 config_type=initial n_minim_iter=19 stress="7.80364409964744e-05 -5.188520264831369e-06 2.545193175087036e-06 -5.188520264831369e-06 -9.257224898159176e-06 1.9457919156093045e-05 2.545193175087036e-06 1.9457919156093045e-05 2.889553250237065e-06" pbc="T T T"
Si      13.47806258      12.82100017      10.49438534
Si      10.10244101       6.35710182       5.59839667
Si       7.62423474       7.44768999       5.61105569
Si      15.95626885      11.73041200      10.48172632
Si      14.19997630      11.13681368      10.45509558
Si       9.38052729       8.04128831       5.63768643
Si      11.14756684       7.74951937       6.12376748
Si      12.43293675      11.42858262       9.96901453
Si       6.31800647       8.51074933       4.82572483
Si      17.26249712      10.66735266      11.26705718
Si      19.01773079      11.12033611      10.86513657
Si       4.56277280       8.05776588       5.22764544
Si       5.93059538       6.81013495       5.21226991
Si      17.64990821      12.36796703      10.88051210
Si      16.11139496      13.36304415      11.18008262
Si       7.46910863       5.81505783       4.91269939
16
Lattice="13.750233561531417 3.583762756803325 7.218697182340744 4.481087723124786 11.36825358589662 2.7503819212558973 5.350149761656318 4.2262414793748695 6.125510952586461" Properties=species:S:1:pos:R:3 unique_starting_index=30 config_type=initial n_minim_iter=20 stress="5.015038772848604e-05 -8.384265895225496e-06 5.244104029568018e-07 -8.384265895225496e-06 4.21592144841008e-06 1.326648782720301e-05 5.244104029568018e-07 1.326648782720301e-05 3.59845327153428e-06" pbc="T T T"
Si      13.47871316      12.82100467      10.49546322
Si      10.10275789       6.35725315       5.59912684
Si       7.62443757       7.44771806       5.61154689
Si      15.95703347      11.73053976      10.48304316
Si      14.20072427      11.13685660      10.45625126
Si       9.38074677       8.04140122       5.63833880
Si      11.14779110       7.74965553       6.12463192
Si      12.43367995      11.42860229       9.96995814
Si       6.31824971       8.51081868       4.82625197
Si      17.26322133      10.66743914      11.26833808
Si      19.01846454      11.12048389      10.86662723
Si       4.56300651       8.05777393       5.22796283
Si       5.93084954       6.81020971       5.21268822
Si      17.65062151      12.36804811      10.88190183
Si      16.11211950      13.36320274      11.18130623
Si       7.46935155       5.81505509       4.91328383
16
Lattice="13.751436251014947 3.5844720708752402 7.221769503983373 4.482607473383726 11.368388444058054 2.750454043258707 5.351695154807552 4.226195007615849 6.126502790985015" Properties=species:S:1:pos:R:3 unique_starting_index=30 config_type=initial n_minim_iter=21 stress="-8.281375375390968e-05 -1.0690623880652813e-06 -3.510508456720007e-05 -1.0690623880652813e-06 2.0781566922887707e-05 -2.5391365138916466e-05 -3.510508456720007e-05 -2.5391365138916466e-05 -1.4122697996362177e-06" pbc="T T T"
Si      13.48153518      12.82121576      10.49776882
Si      10.10420370       6.35783976       5.60095751
Si       7.62564313       7.44780306       5.61288387
Si      15.96009575      11.73125246      10.48584247
Si      14.20389319      11.13714364      10.45879402
Si       9.38184569       8.04191188       5.63993231
Si      11.14881286       7.75044941       6.12653608
Si      12.43692602      11.42860611       9.97219026
Si       6.31953961       8.51090643       4.82720347
Si      17.26619927      10.66814909      11.27152287
Si      19.02146725      11.12126700      10.87024000
Si       4.56427163       8.05778853       5.22848634
Si       5.93212613       6.81030475       5.21341634
Si      17.65361275      12.36875077      10.88531000
Si      16.11502121      13.36385855      11.18422728
Si       7.47071767       5.81519697       4.91449906
