22
Lattice="6.595315626493822 0.6329570289576739 -0.19659151027097596 -0.9737949501820202 6.23436675650004 -2.9320730580934193 -1.7218722739464187 -4.4794818392114335 14.15085203259001" Properties=species:S:1:pos:R:3 unique_starting_index=51 config_type=initial n_minim_iter=1 energy=-3709.735943148643 free_energy=-3709.735943148643 pbc="T T T"
Si       4.47815787       6.06297511       1.63896325
Si      -0.50771409       0.03701232       7.69308118
Si       2.11028029       7.06642922      -3.96457256
Si      -2.19936474       1.70153381       2.30745730
Si       0.07812029       0.09861991       5.92492770
Si       4.89585895       0.86395604       6.07400059
Si      -1.28508004       0.50182574       1.33256814
Si       0.44595153       0.42614576       0.60428052
Si      -0.86249058      -1.36713785       6.52295522
Si       6.73833131       1.46048089      10.34447161
Si      -0.17367781       1.47356391       8.82162171
Si       3.68069054       0.66436233       1.86993691
Si      -1.47425045       0.17698021       3.21432923
Si       3.27892166      -1.52239303      14.93406387
Si       6.12528658      -0.25107635      10.66141104
Si       4.57643300       4.18885075       2.08758735
Si       2.35176509       0.40306171       0.56656913
Si       5.28637085       2.45417769      10.05965654
Si       5.43412862       0.76951569       9.23288459
Si       0.44379201      -1.57603565       5.22852570
Si       3.65210450       1.74609778       0.46932372
Si       4.12447912       0.00434656       0.23140337
22
Lattice="6.595143245504729 0.6328010726599079 -0.19655514575871416 -0.973923050749304 6.234204661297987 -2.932258287569296 -1.7216116869037736 -4.480009336045034 14.150214979059452" Properties=species:S:1:pos:R:3 unique_starting_index=51 config_type=initial n_minim_iter=2 stress="-0.0007153920031542583 -0.0003126222786434816 4.558183336648064e-05 -0.0003126222786434816 -0.0014912517586513486 -0.000979221964216882 4.558183336648064e-05 -0.000979221964216882 -0.0015295786370196154" pbc="T T T"
Si       4.47798400       6.06232947       1.63862295
Si      -0.50754890       0.03663985       7.69255305
Si       2.11005890       7.06624787      -3.96473780
Si      -2.19930909       1.70148249       2.30721203
Si       0.07813111       0.09835087       5.92464999
Si       4.89578920       0.86344278       6.07355454
Si      -1.28501670       0.50165660       1.33240482
Si       0.44582964       0.42614028       0.60424496
Si      -0.86243384      -1.36732828       6.52255144
Si       6.73811763       1.45960984      10.34359398
Si      -0.17361984       1.47296812       8.82099925
Si       3.68047624       0.66395834       1.86982558
Si      -1.47413646       0.17679279       3.21411342
Si       3.27918476      -1.52328394      14.93323694
Si       6.12529155      -0.25182531      10.66086418
Si       4.57610234       4.18844160       2.08741257
Si       2.35169383       0.40295573       0.56677335
Si       5.28623769       2.45335478      10.05876701
Si       5.43409501       0.76881203       9.23228834
Si       0.44383919      -1.57619427       5.22824853
Si       3.65207058       1.74591868       0.46913818
Si       4.12449643       0.00428959       0.23156626
22
Lattice="6.595296605534678 0.6328667035314137 -0.19654043268709306 -0.973910302872215 6.234415195445449 -2.93225498406176 -1.721658000163918 -4.479915416471032 14.1507432453468" Properties=species:S:1:pos:R:3 unique_starting_index=51 config_type=initial n_minim_iter=3 stress="0.0005088655863054979 6.8553923475651776e-06 0.00020649194160020183 6.8553923475651776e-06 0.00021053409248462127 -0.0002816110352622264 0.00020649194160020183 -0.0002816110352622264 0.00033874392426630544" pbc="T T T"
Si       4.47814212       6.06261326       1.63885786
Si      -0.50751184       0.03682942       7.69287413
Si       2.11014976       7.06650441      -3.96476579
Si      -2.19933884       1.70164491       2.30735657
Si       0.07812758       0.09852256       5.92495330
Si       4.89591678       0.86363766       6.07382090
Si      -1.28503081       0.50166238       1.33246164
Si       0.44580457       0.42620309       0.60428643
Si      -0.86247636      -1.36721206       6.52278498
Si       6.73825326       1.45992248      10.34400868
Si      -0.17359784       1.47322665       8.82142269
Si       3.68051270       0.66397353       1.86994274
Si      -1.47414210       0.17684992       3.21426204
Si       3.27935442      -1.52302936      14.93386521
Si       6.12546645      -0.25158268      10.66136150
Si       4.57616342       4.18871756       2.08766515
Si       2.35173957       0.40299710       0.56691171
Si       5.28636257       2.45371956      10.05920337
Si       5.43424221       0.76906397       9.23270752
Si       0.44383839      -1.57612162       5.22842446
Si       3.65220316       1.74604132       0.46916761
Si       4.12463196       0.00432658       0.23163060
22
Lattice="6.594860586423971 0.6328735410877162 -0.1967124017549728 -0.9737291351024084 6.234212264897639 -2.931771924575608 -1.7220181203224678 -4.479045950005349 14.150176573507144" Properties=species:S:1:pos:R:3 unique_starting_index=51 config_type=initial n_minim_iter=4 stress="-0.0005359298314329968 9.749967901823721e-05 -0.000257937777320112 9.749967901823721e-05 6.341327803753136e-05 0.0005426538120907526 -0.000257937777320112 0.0005426538120907526 -0.00021457510920864245" pbc="T T T"
Si       4.47781833       6.06265602       1.63904325
Si      -0.50769233       0.03731947       7.69268197
Si       2.11016649       7.06623896      -3.96428970
Si      -2.19925864       1.70178604       2.30747868
Si       0.07791916       0.09893495       5.92484116
Si       4.89539294       0.86401560       6.07353045
Si      -1.28499833       0.50170621       1.33251546
Si       0.44575853       0.42626827       0.60425395
Si      -0.86266426      -1.36675278       6.52255756
Si       6.73746436       1.46059344      10.34356915
Si      -0.17386039       1.47377342       8.82128597
Si       3.68017557       0.66403441       1.86986417
Si      -1.47413591       0.17702094       3.21424347
Si       3.27874344      -1.52211142      14.93331524
Si       6.12473180      -0.25093579      10.66090787
Si       4.57572210       4.18883862       2.08776018
Si       2.35154309       0.40302401       0.56691564
Si       5.28565002       2.45436007      10.05888997
Si       5.43356942       0.76960352       9.23231506
Si       0.44361566      -1.57576641       5.22815584
Si       3.65199554       1.74607884       0.46912274
Si       4.12432985       0.00432638       0.23149075
22
Lattice="6.594915117579157 0.632629561258175 -0.19670513130773376 -0.9739682511723988 6.234095074019771 -2.932055473739103 -1.72181180108064 -4.4793534336514425 14.150503271389551" Properties=species:S:1:pos:R:3 unique_starting_index=51 config_type=initial n_minim_iter=5 stress="0.00021523933423773565 0.00019168447576263498 -0.00029046290378274906 0.00019168447576263498 -9.520718004736955e-05 -0.00011336032856064416 -0.00029046290378274906 -0.00011336032856064416 6.288425713430027e-06" pbc="T T T"
Si       4.47770896       6.06196864       1.63884592
Si      -0.50748906       0.03714398       7.69272247
Si       2.10994486       7.06599649      -3.96452511
Si      -2.19933841       1.70167241       2.30742427
Si       0.07793464       0.09894641       5.92500174
Si       4.89542453       0.86357531       6.07341645
Si      -1.28511119       0.50155541       1.33262708
Si       0.44582243       0.42633244       0.60405030
Si      -0.86271975      -1.36665215       6.52267118
Si       6.73761802       1.46006941      10.34355171
Si      -0.17382456       1.47347467       8.82120471
Si       3.68011409       0.66356687       1.87013492
Si      -1.47408806       0.17685396       3.21427350
Si       3.27937983      -1.52268467      14.93373674
Si       6.12500022      -0.25166414      10.66120081
Si       4.57531355       4.18833933       2.08776366
Si       2.35146078       0.40281081       0.56712681
Si       5.28549284       2.45379793      10.05881214
Si       5.43357882       0.76883995       9.23223378
Si       0.44362329      -1.57577843       5.22815371
Si       3.65218667       1.74586891       0.46899838
Si       4.12423993       0.00398470       0.23148310
22
Lattice="6.5944907783457385 0.6322062845446984 -0.19615473354703059 -0.974557319085913 6.234174454735555 -2.9320320491214877 -1.7202679171708875 -4.4790476894636875 14.1503029017282" Properties=species:S:1:pos:R:3 unique_starting_index=51 config_type=initial n_minim_iter=6 stress="-0.000580726723932528 -3.638639762620242e-05 0.0007524267278912761 -3.638639762620242e-05 0.000294392693736581 4.394141308460892e-05 0.0007524267278912761 4.394141308460892e-05 -3.688834225591275e-05" pbc="T T T"
Si       4.47719736       6.06170963       1.63927679
Si      -0.50677861       0.03735455       7.69267535
Si       2.10903212       7.06587359      -3.96420896
Si      -2.19915296       1.70177004       2.30727508
Si       0.07842481       0.09916604       5.92501272
Si       4.89557739       0.86339103       6.07376794
Si      -1.28495829       0.50161054       1.33258137
Si       0.44576956       0.42637705       0.60404268
Si      -0.86210349      -1.36643063       6.52256740
Si       6.73795815       1.45983827      10.34408595
Si      -0.17317434       1.47374629       8.82118962
Si       3.68000838       0.66329510       1.87053050
Si      -1.47372463       0.17696015       3.21418815
Si       3.28072407      -1.52261793      14.93411466
Si       6.12561800      -0.25190910      10.66176286
Si       4.57484740       4.18812401       2.08825289
Si       2.35134736       0.40263472       0.56732744
Si       5.28582723       2.45369805      10.05924401
Si       5.43395852       0.76858549       9.23264579
Si       0.44406250      -1.57568482       5.22812164
Si       3.65199998       1.74563436       0.46934643
Si       4.12398242       0.00366225       0.23186158
22
Lattice="6.594749388744796 0.6311920418777026 -0.19643201374339542 -0.9753899125848606 6.233799356673792 -2.9318624049464215 -1.7203278377389126 -4.478100470479222 14.150456099363113" Properties=species:S:1:pos:R:3 unique_starting_index=51 config_type=initial n_minim_iter=7 stress="0.0002398911771184391 -0.0007929098703533646 -0.0001165433112847746 -0.0007929098703533646 -0.0003395672526392837 0.0002090693992168206 -0.0001165433112847746 0.0002090693992168206 0.00025847047521720035" pbc="T T T"
Si       4.47644266       6.06053762       1.63912204
Si      -0.50703660       0.03775905       7.69273760
Si       2.10827208       7.06500079      -3.96409428
Si      -2.19966644       1.70170283       2.30745899
Si       0.07822849       0.09964450       5.92501029
Si       4.89540792       0.86283844       6.07349700
Si      -1.28515033       0.50165832       1.33280448
Si       0.44552454       0.42645908       0.60393884
Si      -0.86239541      -1.36589566       6.52260483
Si       6.73746359       1.45901102      10.34380575
Si      -0.17374227       1.47419185       8.82126361
Si       3.68000171       0.66258434       1.87060134
Si      -1.47390504       0.17712234       3.21439135
Si       3.28100959      -1.52247812      14.93449093
Si       6.12569193      -0.25256310      10.66176284
Si       4.57409924       4.18722078       2.08829659
Si       2.35139491       0.40216439       0.56717379
Si       5.28525466       2.45311179      10.05906573
Si       5.43366256       0.76781454       9.23247140
Si       0.44390016      -1.57536264       5.22800547
Si       3.65217625       1.74488957       0.46932792
Si       4.12407623       0.00294830       0.23182116
22
Lattice="6.594702543442491 0.6315591857454178 -0.19646470716265868 -0.9750338163720235 6.233922758227422 -2.931881286425925 -1.7206027377974304 -4.478563378212185 14.150051906141211" Properties=species:S:1:pos:R:3 unique_starting_index=51 config_type=initial n_minim_iter=8 stress="0.00030192241039869093 0.00020771277504091074 2.3060118086675945e-05 0.00020771277504091074 0.00026678448437322566 3.245554473074986e-05 2.3060118086675945e-05 3.245554473074986e-05 -0.0005431421606162583" pbc="T T T"
Si       4.47668414       6.06079051       1.63885585
Si      -0.50702155       0.03765712       7.69241493
Si       2.10866070       7.06537405      -3.96405853
Si      -2.19956668       1.70140082       2.30737517
Si       0.07825780       0.09972141       5.92472079
Si       4.89537559       0.86302612       6.07316967
Si      -1.28509370       0.50151043       1.33283279
Si       0.44546083       0.42655793       0.60383476
Si      -0.86257568      -1.36604384       6.52236411
Si       6.73728680       1.45917464      10.34328541
Si      -0.17368114       1.47420231       8.82086644
Si       3.67996501       0.66263150       1.87058258
Si      -1.47386310       0.17692248       3.21431559
Si       3.28113395      -1.52257337      14.93420589
Si       6.12565915      -0.25250600      10.66143419
Si       4.57410012       4.18746341       2.08816612
Si       2.35136559       0.40220532       0.56706945
Si       5.28526527       2.45326476      10.05857369
Si       5.43356463       0.76784164       9.23206884
Si       0.44368056      -1.57538815       5.22778598
Si       3.65238924       1.74505213       0.46932243
Si       4.12395383       0.00311812       0.23188865
22
Lattice="6.594198971026337 0.6314560895996923 -0.196547011702835 -0.9750109203159513 6.233698670772905 -2.932287158632844 -1.720528193121422 -4.478618542424259 14.151539782022914" Properties=species:S:1:pos:R:3 unique_starting_index=51 config_type=initial n_minim_iter=9 stress="-0.0005182007808723698 0.00023981924132262475 -9.845556932992137e-05 0.00023981924132262475 -0.0001954279760141611 -0.00020125350767927674 -9.845556932992137e-05 -0.00020125350767927674 0.0005839684782418884" pbc="T T T"
Si       4.47624270       6.06037882       1.63884276
Si      -0.50704438       0.03758138       7.69312146
Si       2.10849360       7.06515649      -3.96456829
Si      -2.19942352       1.70124231       2.30763734
Si       0.07824097       0.09972275       5.92520517
Si       4.89497879       0.86283580       6.07367494
Si      -1.28498452       0.50144184       1.33302136
Si       0.44540565       0.42656064       0.60381469
Si      -0.86260421      -1.36607904       6.52300206
Si       6.73658102       1.45881033      10.34415759
Si      -0.17376303       1.47406987       8.82165031
Si       3.67963308       0.66241226       1.87074547
Si      -1.47376879       0.17684559       3.21463930
Si       3.28098351      -1.52284988      14.93584373
Si       6.12518358      -0.25282477      10.66247906
Si       4.57358596       4.18709558       2.08829014
Si       2.35113866       0.40210143       0.56703436
Si       5.28475937       2.45288307      10.05943857
Si       5.43305052       0.76751105       9.23289674
Si       0.44353163      -1.57536465       5.22829077
Si       3.65222346       1.74489681       0.46936555
Si       4.12359092       0.00302690       0.23193822
22
Lattice="6.594433664862314 0.6303705038385452 -0.19631101440211718 -0.9761468788640592 6.233499890593948 -2.931927935057246 -1.7194733987706516 -4.477497062683637 14.150869551522106" Properties=species:S:1:pos:R:3 unique_starting_index=51 config_type=initial n_minim_iter=10 stress="0.00014423503837905708 7.045437592092117e-05 0.00011443575357864469 7.045437592092117e-05 -0.00029911736139252317 0.00018731585481141855 0.00011443575357864469 0.00018731585481141855 -1.7380522576762623e-06" pbc="T T T"
Si       4.47545539       6.05946737       1.63921955
Si      -0.50692204       0.03830906       7.69272268
Si       2.10756160       7.06461571      -3.96389860
Si      -2.19965818       1.70157562       2.30783176
Si       0.07850229       0.10036403       5.92474166
Si       4.89540597       0.86244032       6.07362868
Si      -1.28497658       0.50159959       1.33319285
Si       0.44543642       0.42658460       0.60356270
Si      -0.86239820      -1.36553956       6.52259189
Si       6.73671575       1.45820522      10.34395971
Si      -0.17382056       1.47480371       8.82135387
Si       3.67962687       0.66152446       1.87079433
Si      -1.47375152       0.17718837       3.21449475
Si       3.28240103      -1.52270863      14.93598139
Si       6.12603874      -0.25343393      10.66246574
Si       4.57290581       4.18606331       2.08872767
Si       2.35106446       0.40164389       0.56687818
Si       5.28492509       2.45242046      10.05940245
Si       5.43342980       0.76696183       9.23271631
Si       0.44366934      -1.57494650       5.22799683
Si       3.65253380       1.74425172       0.46976401
Si       4.12368478       0.00221883       0.23220848
22
Lattice="6.59425162566748 0.6299952189013642 -0.19645609213046186 -0.976467333588111 6.234048063261366 -2.9320780621755693 -1.7194220968836444 -4.478102136224123 14.150939797437859" Properties=species:S:1:pos:R:3 unique_starting_index=51 config_type=initial n_minim_iter=11 stress="-0.00026684064146426356 -0.0002468670302066496 -0.00024120436457637488 -0.0002468670302066496 0.0006457249262684165 -0.00021493370377819398 -0.00024120436457637488 -0.00021493370377819398 -0.00012273999281289008" pbc="T T T"
Si       4.47488990       6.05950807       1.63895559
Si      -0.50710471       0.03819874       7.69259748
Si       2.10724000       7.06511419      -3.96409427
Si      -2.19972497       1.70168193       2.30791353
Si       0.07839245       0.10028122       5.92460233
Si       4.89518146       0.86203894       6.07344782
Si      -1.28493718       0.50164449       1.33325071
Si       0.44537318       0.42657402       0.60348042
Si      -0.86246034      -1.36575231       6.52257346
Si       6.73622208       1.45761387      10.34367272
Si      -0.17411922       1.47474613       8.82124207
Si       3.67942511       0.66115790       1.87067604
Si      -1.47382327       0.17718406       3.21447045
Si       3.28231877      -1.52353364      14.93602039
Si       6.12574485      -0.25424406      10.66230305
Si       4.57240886       4.18597257       2.08856831
Si       2.35096687       0.40149960       0.56677010
Si       5.28446584       2.45189425      10.05911202
Si       5.43305400       0.76634944       9.23246101
Si       0.44356421      -1.57517944       5.22798223
Si       3.65242639       1.74409324       0.46970160
Si       4.12353296       0.00189304       0.23212971
22
Lattice="6.59450004563427 0.6296428788569431 -0.19618333247728478 -0.976909561730069 6.2335281355616665 -2.9321159461498403 -1.7187161056796458 -4.477466004624199 14.15118672528215" Properties=species:S:1:pos:R:3 unique_starting_index=51 config_type=initial n_minim_iter=12 stress="4.812605057353539e-05 3.5703406735251985e-05 1.9730547932088522e-05 3.5703406735251985e-05 -6.754161000025189e-05 3.8577346991610846e-05 1.9730547932088522e-05 3.8577346991610846e-05 9.890426866746467e-06" pbc="T T T"
Si       4.47475112       6.05881424       1.63929709
Si      -0.50690675       0.03851102       7.69260643
Si       2.10709521       7.06446871      -3.96398089
Si      -2.19969856       1.70148362       2.30816462
Si       0.07863939       0.10051041       5.92458262
Si       4.89572330       0.86190750       6.07377136
Si      -1.28479906       0.50163694       1.33334675
Si       0.44533792       0.42652028       0.60342989
Si      -0.86224728      -1.36544789       6.52265341
Si       6.73678559       1.45748992      10.34416204
Si      -0.17392800       1.47494762       8.82149508
Si       3.67955143       0.66073727       1.87085311
Si      -1.47385805       0.17724179       3.21446309
Si       3.28352478      -1.52351337      14.93687301
Si       6.12649216      -0.25453021      10.66285021
Si       4.57232317       4.18547164       2.08900436
Si       2.35109399       0.40139476       0.56682297
Si       5.28502045       2.45145657      10.05949558
Si       5.43355697       0.76608592       9.23277632
Si       0.44368119      -1.57487928       5.22809343
Si       3.65269000       1.74370195       0.47002725
Si       4.12361090       0.00163434       0.23226999
22
Lattice="6.594405690375026 0.6289556658253297 -0.19600842497071844 -0.9776341771357273 6.233570582392779 -2.9323545286622874 -1.7178336578959907 -4.477495143921214 14.151622458696266" Properties=species:S:1:pos:R:3 unique_starting_index=51 config_type=initial n_minim_iter=13 stress="6.0942204283463814e-06 -4.830117229446441e-06 -7.878123888322509e-08 -4.830117229446441e-06 1.1617087921128568e-05 1.6903152648151566e-05 -7.878123888322509e-08 1.6903152648151566e-05 1.2009071131010666e-06" pbc="T T T"
Si       4.47386184       6.05833894       1.63933553
Si      -0.50676843       0.03880878       7.69261545
Si       2.10663952       7.06429212      -3.96430030
Si      -2.19961107       1.70131091       2.30854056
Si       0.07872748       0.10053874       5.92454839
Si       4.89592461       0.86143001       6.07391090
Si      -1.28474007       0.50158854       1.33342940
Si       0.44539354       0.42631638       0.60328147
Si      -0.86199287      -1.36523479       6.52295110
Si       6.73671333       1.45663699      10.34439538
Si      -0.17396502       1.47499155       8.82170717
Si       3.67953926       0.66004274       1.87103469
Si      -1.47406140       0.17710910       3.21457740
Si       3.28464635      -1.52428751      14.93800625
Si       6.12675106      -0.25556056      10.66319768
Si       4.57166788       4.18481932       2.08914989
Si       2.35101132       0.40125931       0.56692273
Si       5.28507315       2.45048303      10.05977911
Si       5.43367285       0.76517275       9.23293061
Si       0.44379717      -1.57481585       5.22825567
Si       3.65275699       1.74323922       0.47038753
Si       4.12371080       0.00122968       0.23232696
22
Lattice="6.594319328645989 0.6284730117704357 -0.19587519203748302 -0.978151741509704 6.233641176992994 -2.9326252655922 -1.7171653744897628 -4.477666092821089 14.152147574047715" Properties=species:S:1:pos:R:3 unique_starting_index=51 config_type=initial n_minim_iter=14 stress="-5.795813555760323e-06 3.176005878326817e-06 -1.7218835939318523e-05 3.176005878326817e-06 4.591714397695572e-05 9.20452893790062e-06 -1.7218835939318523e-05 9.20452893790062e-06 8.136184367412208e-06" pbc="T T T"
Si       4.47315290       6.05793844       1.63946597
Si      -0.50653727       0.03911657       7.69269000
Si       2.10638222       7.06420225      -3.96448244
Si      -2.19945075       1.70132205       2.30885132
Si       0.07875430       0.10048912       5.92462757
Si       4.89595048       0.86113467       6.07395881
Si      -1.28465494       0.50146318       1.33350821
Si       0.44535267       0.42603184       0.60326000
Si      -0.86184945      -1.36524005       6.52314050
Si       6.73672005       1.45584852      10.34474999
Si      -0.17391425       1.47499264       8.82185923
Si       3.67948285       0.65946336       1.87112865
Si      -1.47421974       0.17680705       3.21483768
Si       3.28558272      -1.52498654      14.93910456
Si       6.12680678      -0.25627324      10.66333519
Si       4.57110630       4.18440541       2.08934436
Si       2.35110925       0.40110451       0.56686865
Si       5.28519945       2.44977094      10.06025286
Si       5.43376899       0.76431071       9.23322895
Si       0.44388539      -1.57478472       5.22843476
Si       3.65282225       1.74296925       0.47058984
Si       4.12366345       0.00099511       0.23221452
22
Lattice="6.594334107653623 0.6280961321616282 -0.195679723665735 -0.9785948346911152 6.233549821393568 -2.9328441894828017 -1.7164807092269867 -4.477676994896064 14.152553802963938" Properties=species:S:1:pos:R:3 unique_starting_index=51 config_type=initial n_minim_iter=15 stress="3.520188791422241e-05 -1.1539605966489324e-05 1.8077225392626014e-05 -1.1539605966489324e-05 2.30306992072843e-05 2.4835132245561586e-06 1.8077225392626014e-05 2.4835132245561586e-06 -6.3775574113014865e-06" pbc="T T T"
Si       4.47271821       6.05737966       1.63976783
Si      -0.50632336       0.03920921       7.69261251
Si       2.10605932       7.06395683      -3.96463246
Si      -2.19930624       1.70127404       2.30899840
Si       0.07886574       0.10046390       5.92470637
Si       4.89609141       0.86091307       6.07411444
Si      -1.28465128       0.50136285       1.33365989
Si       0.44538177       0.42575938       0.60332360
Si      -0.86168484      -1.36512170       6.52333685
Si       6.73699597       1.45523225      10.34510618
Si      -0.17368671       1.47508824       8.82216287
Si       3.67954816       0.65906607       1.87121038
Si      -1.47432578       0.17659765       3.21492350
Si       3.28655354      -1.52544588      14.94001998
Si       6.12700246      -0.25676472      10.66345242
Si       4.57075294       4.18401449       2.08956997
Si       2.35117007       0.40090964       0.56684106
Si       5.28557917       2.44920597      10.06071627
Si       5.43407354       0.76369092       9.23354165
Si       0.44402002      -1.57472995       5.22856813
Si       3.65298749       1.74281854       0.47082306
Si       4.12373614       0.00077095       0.23222127
22
Lattice="6.594171551343684 0.6277118825272592 -0.19556453884864144 -0.978976930196924 6.233369511639394 -2.9331452292103983 -1.7159099354198548 -4.477599017725234 14.15348306914898" Properties=species:S:1:pos:R:3 unique_starting_index=51 config_type=initial n_minim_iter=16 stress="2.414329365857196e-05 8.152235803614401e-06 -2.312784312826359e-06 8.152235803614401e-06 2.124054261878907e-05 2.6214241645468765e-05 -2.312784312826359e-06 2.6214241645468765e-05 -6.691484036598813e-06" pbc="T T T"
Si       4.47207034       6.05664849       1.64013190
Si      -0.50631374       0.03951871       7.69304242
Si       2.10573236       7.06379014      -3.96479707
Si      -2.19906985       1.70110566       2.30923269
Si       0.07894496       0.10054088       5.92485799
Si       4.89598313       0.86077072       6.07448370
Si      -1.28460817       0.50121929       1.33403739
Si       0.44543005       0.42535348       0.60354892
Si      -0.86169167      -1.36493581       6.52380371
Si       6.73706795       1.45464083      10.34564421
Si      -0.17353684       1.47508669       8.82273560
Si       3.67949058       0.65870537       1.87120048
Si      -1.47446446       0.17627811       3.21515802
Si       3.28745760      -1.52580693      14.94155109
Si       6.12671709      -0.25727473      10.66364233
Si       4.57016420       4.18358190       2.08988792
Si       2.35117472       0.40065422       0.56685211
Si       5.28576395       2.44860995      10.06147861
Si       5.43423010       0.76318316       9.23387763
Si       0.44400624      -1.57465191       5.22882297
Si       3.65310320       1.74261504       0.47102177
Si       4.12376497       0.00048752       0.23221824
22
Lattice="6.593933213712688 0.627268225528968 -0.19542911423723833 -0.9794238161228628 6.2332401220311695 -2.933645497396083 -1.715198791829783 -4.477777364479138 14.154821969987466" Properties=species:S:1:pos:R:3 unique_starting_index=51 config_type=initial n_minim_iter=17 stress="-8.376015088556643e-06 -1.9419245785679148e-05 -4.801196511945134e-06 -1.9419245785679148e-05 4.5480149235083247e-05 5.680112889249481e-06 -4.801196511945134e-06 5.680112889249481e-06 9.858801158100011e-06" pbc="T T T"
Si       4.47125689       6.05593706       1.64022674
Si      -0.50628174       0.03964585       7.69332444
Si       2.10525894       7.06374206      -3.96512231
Si      -2.19883508       1.70093738       2.30944396
Si       0.07903190       0.10055047       5.92520666
Si       4.89586841       0.86047210       6.07512819
Si      -1.28437344       0.50103653       1.33441705
Si       0.44549379       0.42487077       0.60377685
Si      -0.86167138      -1.36483184       6.52449769
Si       6.73722907       1.45379624      10.34638621
Si      -0.17325715       1.47492850       8.82348713
Si       3.67934677       0.65828194       1.87123207
Si      -1.47452535       0.17578902       3.21561069
Si       3.28846742      -1.52644942      14.94349387
Si       6.12632817      -0.25812169      10.66402189
Si       4.56948033       4.18292360       2.09023897
Si       2.35124889       0.40034556       0.56695419
Si       5.28579097       2.44775745      10.06253669
Si       5.43433223       0.76260279       9.23449551
Si       0.44398991      -1.57472431       5.22922398
Si       3.65316526       1.74228111       0.47118765
Si       4.12376275       0.00014056       0.23229693
22
Lattice="6.593911012606868 0.6270197107029407 -0.1952665233394113 -0.9797138352042921 6.232966063320226 -2.934061553668801 -1.714636433007728 -4.4778445809098155 14.15591125384683" Properties=species:S:1:pos:R:3 unique_starting_index=51 config_type=initial n_minim_iter=18 stress="1.2579553507746974e-05 1.3524626196993328e-05 2.0057396585583168e-05 1.3524626196993328e-05 -2.083999670685814e-05 -2.149854340024163e-06 2.0057396585583168e-05 -2.149854340024163e-06 3.436953530151101e-05" pbc="T T T"
Si       4.47082832       6.05532693       1.64031563
Si      -0.50613220       0.03987856       7.69359545
Si       2.10496467       7.06346587      -3.96541600
Si      -2.19867147       1.70063418       2.30960987
Si       0.07912773       0.10057407       5.92552964
Si       4.89591075       0.86030999       6.07571995
Si      -1.28412879       0.50084680       1.33471215
Si       0.44566380       0.42446201       0.60390726
Si      -0.86167478      -1.36486457       6.52488030
Si       6.73766869       1.45318308      10.34701458
Si      -0.17285205       1.47477465       8.82411735
Si       3.67942374       0.65798755       1.87145944
Si      -1.47467059       0.17541873       3.21581953
Si       3.28942221      -1.52695018      14.94505639
Si       6.12619363      -0.25869762      10.66432895
Si       4.56912661       4.18245583       2.09069100
Si       2.35137662       0.40007684       0.56706213
Si       5.28597341       2.44710946      10.06351395
Si       5.43458296       0.76236198       9.23504975
Si       0.44393231      -1.57476821       5.22958475
Si       3.65347816       1.74208420       0.47144891
Si       4.12389514      -0.00002292       0.23242716
22
Lattice="6.5939540808472135 0.6267667890978905 -0.19522854079906996 -0.9799894859872974 6.2330422701624375 -2.934263266323718 -1.7143641557055211 -4.478006471407055 14.156404662651193" Properties=species:S:1:pos:R:3 unique_starting_index=51 config_type=initial n_minim_iter=19 stress="2.4184603608634762e-05 -1.541019726491882e-05 4.871487622225845e-06 -1.541019726491882e-05 2.4501492417012474e-05 1.3238969847684344e-05 4.871487622225845e-06 1.3238969847684344e-05 6.833184500950887e-06" pbc="T T T"
Si       4.47047944       6.05512872       1.64033848
Si      -0.50608304       0.04008288       7.69371090
Si       2.10470771       7.06343074      -3.96545188
Si      -2.19864331       1.70057217       2.30976740
Si       0.07907253       0.10059832       5.92563464
Si       4.89584474       0.86016208       6.07594121
Si      -1.28395652       0.50072555       1.33485417
Si       0.44574422       0.42424366       0.60406398
Si      -0.86171956      -1.36478666       6.52503996
Si       6.73791110       1.45268598      10.34720441
Si      -0.17265487       1.47482082       8.82442905
Si       3.67945547       0.65766751       1.87159624
Si      -1.47482110       0.17530310       3.21581344
Si       3.28990647      -1.52733522      14.94583584
Si       6.12602166      -0.25914648      10.66420996
Si       4.56881422       4.18203163       2.09080658
Si       2.35158518       0.39987067       0.56709103
Si       5.28607058       2.44669516      10.06384685
Si       5.43463510       0.76227273       9.23512858
Si       0.44382008      -1.57486766       5.22974994
Si       3.65368936       1.74186767       0.47159804
Si       4.12399002      -0.00016394       0.23245830
22
Lattice="6.593956916281153 0.6265853445975053 -0.19517219958724855 -0.980204487652283 6.233108564236096 -2.9346543986719404 -1.7140540223433196 -4.478445229156387 14.15723146014277" Properties=species:S:1:pos:R:3 unique_starting_index=51 config_type=initial n_minim_iter=20 stress="6.954873998687209e-06 -1.4766126095795166e-05 5.420407144561501e-06 -1.4766126095795166e-05 2.3200747283961522e-05 2.753253473240479e-06 5.420407144561501e-06 2.753253473240479e-06 2.5113181789387544e-05" pbc="T T T"
Si       4.47015460       6.05492973       1.64024681
Si      -0.50594819       0.04013366       7.69392208
Si       2.10455064       7.06343225      -3.96556491
Si      -2.19856204       1.70027285       2.30998542
Si       0.07895327       0.10048665       5.92579163
Si       4.89573509       0.85991749       6.07626762
Si      -1.28385272       0.50055881       1.33497736
Si       0.44605354       0.42403123       0.60422336
Si      -0.86174586      -1.36467979       6.52531373
Si       6.73817792       1.45192888      10.34762670
Si      -0.17232518       1.47473411       8.82482056
Si       3.67938433       0.65719970       1.87170767
Si      -1.47477848       0.17512119       3.21598470
Si       3.29045172      -1.52809473      14.94690325
Si       6.12578186      -0.25968981      10.66413461
Si       4.56847897       4.18175604       2.09094735
Si       2.35173450       0.39961555       0.56714153
Si       5.28631820       2.44611997      10.06435102
Si       5.43461226       0.76216983       9.23529502
Si       0.44358460      -1.57507713       5.23006623
Si       3.65393198       1.74156824       0.47180233
Si       4.12409965      -0.00030176       0.23254231
22
Lattice="6.593989896777659 0.6265571359608806 -0.19513955641164368 -0.9802520347500394 6.233041740256797 -2.9349198904067912 -1.7139288287018908 -4.4787989239340105 14.157589142746383" Properties=species:S:1:pos:R:3 unique_starting_index=51 config_type=initial n_minim_iter=21 stress="9.872808325071689e-06 6.188497602301906e-06 -1.0499056346661309e-05 6.188497602301906e-06 -2.803671894624354e-06 -1.600864370131074e-06 -1.0499056346661309e-05 -1.600864370131074e-06 -1.7492270745613067e-05" pbc="T T T"
Si       4.47003162       6.05473686       1.64007218
Si      -0.50584010       0.04014160       7.69391743
Si       2.10463925       7.06337725      -3.96570248
Si      -2.19849288       1.70003869       2.31011668
Si       0.07880995       0.10037667       5.92572202
Si       4.89568426       0.85974915       6.07640486
Si      -1.28366690       0.50041575       1.33498546
Si       0.44613690       0.42395745       0.60438515
Si      -0.86183314      -1.36461836       6.52537502
Si       6.73835989       1.45145569      10.34770286
Si      -0.17204059       1.47453415       8.82490566
Si       3.67949996       0.65685720       1.87183523
Si      -1.47467312       0.17496015       3.21608302
Si       3.29075829      -1.52867208      14.94742145
Si       6.12556600      -0.26000883      10.66377133
Si       4.56825849       4.18153192       2.09095156
Si       2.35177282       0.39939477       0.56720003
Si       5.28663228       2.44575720      10.06456043
Si       5.43456571       0.76212638       9.23520723
Si       0.44340907      -1.57521610       5.23019855
Si       3.65407533       1.74144844       0.47204595
Si       4.12426925      -0.00062384       0.23256174
