22
Lattice="4.948696435771515 -1.317561854426833 0.9843653637090983 -3.096981077915643 11.547163129539046 -2.570042751831605 -0.2260543290126942 -4.650903178651998 9.776238645914457" Properties=species:S:1:pos:R:3 unique_starting_index=18 config_type=initial n_minim_iter=1 energy=-3575.708801833327 free_energy=-3575.708801833327 pbc="T T T"
Si       0.23492077       9.38354271       0.33688146
Si       1.51786158       0.03181394       5.88184831
Si      -0.44161277      -3.51884131       9.00623283
Si       3.63405643      -2.49246190       9.41769602
Si      -1.40846447       1.06920902       7.82764623
Si       3.42717491       1.83930353       1.91530192
Si       2.60636918      -0.32661736       1.49121615
Si       1.38404614       0.90244637       7.99788235
Si       1.86798888      -4.05225285       9.13421732
Si      -0.55466151       1.37838914       5.61307494
Si       3.27548247      -0.28767904       4.47750391
Si      -0.70553797       5.16495465       4.77069485
Si      -0.44388454      -1.05118997       5.24357475
Si      -1.59057474       8.11061086      -1.36968831
Si       2.68371550       2.09382908       5.39321322
Si       0.50985377       6.91745118      -0.29598809
Si       0.69354394      -1.10909705       3.01616778
Si       4.69815779      -4.44947426       7.65737924
Si       1.54540218       2.03684775       3.28047271
Si      -0.30945999       3.58691909       6.56448015
Si      -0.20207050       3.73310585       2.87875463
Si       1.39808549      -1.57287375       7.85584799
22
Lattice="5.028939726700093 -1.4307870493639454 1.0507703831349222 -3.384189364440643 11.584016754157616 -2.830862508833426 -0.03764062830918297 -4.834037629307607 9.759942072317571" Properties=species:S:1:pos:R:3 unique_starting_index=18 config_type=initial n_minim_iter=2 stress="0.0026538939667444853 -0.0023157190923989994 -0.0024424319091564937 -0.0023157190923989994 -0.0012831321348422092 -0.004307139699787705 -0.0024424319091564937 -0.004307139699787705 0.0008556836844140799" pbc="T T T"
Si       0.10170897       9.34089533       0.14962323
Si       1.59738875      -0.14676060       5.80295416
Si      -0.30037474      -3.68458971       9.02545867
Si       3.85279244      -2.77072888       9.33458762
Si      -1.34761392       0.94913330       7.74395309
Si       3.50461468       1.75774816       1.89567591
Si       2.66085783      -0.41008788       1.52510780
Si       1.51805523       0.70020568       7.89201273
Si       2.00930962      -4.40008189       9.03070500
Si      -0.44561138       1.26316229       5.50275397
Si       3.40249480      -0.44091511       4.45083285
Si      -0.71712147       5.14425369       4.66161545
Si      -0.42847622      -1.19709972       5.15754797
Si      -1.85957000       8.11238138      -1.54314314
Si       2.67429477       1.92065628       5.33230468
Si       0.28488557       6.85520267      -0.39192739
Si       0.74867623      -1.14500242       2.98089180
Si       4.81467509      -4.69595390       7.70460349
Si       1.50087844       1.88034806       3.20682900
Si      -0.29644728       3.46075479       6.33928397
Si      -0.20941302       3.54000966       2.77867802
Si       1.46973956      -1.78076583       7.80493581
22
Lattice="4.9993874463627055 -1.4129856946753543 1.1002156202998712 -3.369474493143916 11.578893317858528 -2.7389944341271715 0.09386297515366837 -4.748908403175546 9.626524222283726" Properties=species:S:1:pos:R:3 unique_starting_index=18 config_type=initial n_minim_iter=3 stress="-0.006766350270697323 0.0005375760991692437 0.0029380236675351995 0.0005375760991692437 -0.0040838682649769024 0.0006597788344877916 0.0029380236675351995 0.0006597788344877916 -0.008262457349206337" pbc="T T T"
Si       0.15110283       9.38102959       0.25210241
Si       1.66786807      -0.09660989       5.76347790
Si      -0.17707780      -3.60601523       8.93008093
Si       3.96577363      -2.68065885       9.25558925
Si      -1.21181950       1.03943090       7.68678397
Si       3.53621603       1.81184557       1.95194370
Si       2.66195409      -0.38937829       1.55386257
Si       1.64795105       0.79077769       7.85592990
Si       2.09498204      -4.37452189       8.89636775
Si      -0.32110101       1.32025779       5.46091810
Si       3.46159495      -0.37887785       4.45669038
Si      -0.60642870       5.24897442       4.69332271
Si      -0.37572871      -1.17008930       5.07563876
Si      -1.87572358       8.11838983      -1.47047048
Si       2.71921665       1.99678093       5.35419054
Si       0.25379601       6.86627431      -0.29271828
Si       0.78204691      -1.09818306       2.93923345
Si       4.83449504      -4.62365993       7.65740409
Si       1.52193344       1.90251859       3.21648429
Si      -0.18648514       3.55624078       6.29286024
Si      -0.13999968       3.53164134       2.79984801
Si       1.54692186      -1.70647671       7.73686599
22
Lattice="5.01698147832416 -1.4162256422802557 1.1065472170912052 -3.3820770240717457 11.615901942799272 -2.735993322482089 0.10096240413874165 -4.75126518622552 9.661828746078855" Properties=species:S:1:pos:R:3 unique_starting_index=18 config_type=initial n_minim_iter=4 stress="0.0027769570810826038 0.0012162945580902155 0.002952327077608726 0.0012162945580902155 0.005552284946547048 0.0018441479368569004 0.002952327077608726 0.0018441479368569004 0.0016458254852493547" pbc="T T T"
Si       0.15818805       9.41703196       0.26869584
Si       1.67615277      -0.09169886       5.78769217
Si      -0.17092301      -3.60638428       8.96908784
Si       3.98797674      -2.67708841       9.28936661
Si      -1.20806137       1.05692769       7.72528058
Si       3.55590180       1.82618996       1.96645063
Si       2.67174656      -0.38775266       1.56362171
Si       1.66437511       0.80680989       7.89390966
Si       2.10480402      -4.38817262       8.92265313
Si      -0.31061978       1.33255440       5.48671206
Si       3.48231824      -0.37038578       4.47851822
Si      -0.59955883       5.28370170       4.72698730
Si      -0.37824597      -1.17082320       5.09207420
Si      -1.88799382       8.14673556      -1.46461970
Si       2.72975404       2.01533093       5.38469861
Si       0.24591909       6.88932473      -0.27853388
Si       0.78646597      -1.09365985       2.94735667
Si       4.84710858      -4.62910648       7.68681324
Si       1.52661133       1.90968862       3.23379586
Si      -0.18152014       3.58348359       6.32177572
Si      -0.13480336       3.53953151       2.82043501
Si       1.55358552      -1.70093012       7.76826822
22
Lattice="5.0084738330511644 -1.4247873437146752 1.0770578491211493 -3.4040738345582064 11.521060173056751 -2.7490278837674276 0.04605748360887561 -4.7248341434268815 9.722761460876816" Properties=species:S:1:pos:R:3 unique_starting_index=18 config_type=initial n_minim_iter=5 stress="-0.0015910965462774737 0.0005944173093587558 -0.0022337957976203346 0.0005944173093587558 -0.0022178606466116873 0.0005852432389620064 -0.0022337957976203346 0.0005852432389620064 0.003054518320126526" pbc="T T T"
Si       0.13731875       9.32797213       0.25060795
Si       1.62008305      -0.12411053       5.80016387
Si      -0.22010576      -3.59423035       9.04270058
Si       3.92614129      -2.68909490       9.29534376
Si      -1.26261598       1.04058436       7.78441620
Si       3.54870839       1.80383859       1.94641129
Si       2.65488794      -0.39372323       1.55735856
Si       1.61327515       0.77966481       7.92561068
Si       2.04389530      -4.40446887       8.94372981
Si      -0.33644246       1.30541419       5.51609698
Si       3.46679394      -0.37821427       4.47928783
Si      -0.64073546       5.24841093       4.75865904
Si      -0.42602559      -1.17977502       5.11346462
Si      -1.92125609       8.08522545      -1.46955322
Si       2.67143834       1.98635292       5.39386243
Si       0.18968970       6.81771361      -0.28133589
Si       0.76628821      -1.07901201       2.94576653
Si       4.77229880      -4.62041796       7.69822558
Si       1.48751874       1.86158210       3.23264052
Si      -0.24500935       3.55143195       6.33921714
Si      -0.16291796       3.47450742       2.84004703
Si       1.48684346      -1.70447236       7.79627800
22
Lattice="5.125403190124608 -1.5278360469765662 1.0979130403445796 -3.6730612378472234 11.639960517619077 -2.8687510761422286 0.17100697602280923 -4.869822179763898 9.567691667885496" Properties=species:S:1:pos:R:3 unique_starting_index=18 config_type=initial n_minim_iter=6 stress="0.004005683981744879 -0.005395927081330438 -0.0034546830573638602 -0.005395927081330438 0.0006942929124174186 -0.00168261884133274 -0.0034546830573638602 -0.00168261884133274 -0.005254085604408625" pbc="T T T"
Si       0.02843100       9.33854633       0.10254201
Si       1.64075315      -0.28151434       5.67020314
Si      -0.09697564      -3.74810176       8.92034487
Si       4.06994145      -2.89778864       9.10384346
Si      -1.24717976       0.95687489       7.59397112
Si       3.62652585       1.74910705       1.88479285
Si       2.69727124      -0.44350338       1.54821950
Si       1.68369204       0.64805568       7.74829694
Si       2.18839088      -4.62154215       8.79659278
Si      -0.30824126       1.21898660       5.37692993
Si       3.60801106      -0.46251336       4.41750337
Si      -0.68827600       5.23385642       4.57199072
Si      -0.41692749      -1.26483338       4.98563042
Si      -2.11038015       8.18903981      -1.54673916
Si       2.70666040       1.90801799       5.26126399
Si       0.00337300       6.82033541      -0.34126301
Si       0.80818208      -1.10333952       2.86407790
Si       4.90700287      -4.81668472       7.60909542
Si       1.51180353       1.74583689       3.13072881
Si      -0.29967941       3.50582636       6.13671401
Si      -0.20966214       3.40635559       2.75261708
Si       1.55497447      -1.82755062       7.63091831
22
Lattice="5.118461852626715 -1.4847084626139602 1.1878052023582606 -3.5989403386498013 11.53320021789293 -3.0912227241298424 0.25625319927726736 -4.963284510290227 9.704626642127483" Properties=species:S:1:pos:R:3 unique_starting_index=18 config_type=initial n_minim_iter=7 stress="-0.0008734632943400371 -0.003928705599662928 -0.0009047029844586334 -0.003928705599662928 -0.0026951849302628366 -0.0024993740518764232 -0.0009047029844586334 -0.0024993740518764232 -0.00016813697124537323" pbc="T T T"
Si       0.16155720       9.22884792      -0.04466975
Si       1.66716750      -0.40954248       5.72855451
Si       0.02915043      -3.88231399       9.06560017
Si       4.12869936      -2.97568517       9.22674965
Si      -1.11554726       0.81232523       7.61642163
Si       3.69153447       1.75898714       1.90370300
Si       2.68557841      -0.41603792       1.60070474
Si       1.79779504       0.54168790       7.82848332
Si       2.26573420      -4.70615127       8.96607132
Si      -0.20835684       1.09777415       5.40973974
Si       3.71131553      -0.44428916       4.52681476
Si      -0.54997286       5.10540531       4.49895184
Si      -0.37912828      -1.34404184       5.01040700
Si      -2.03670258       8.15661867      -1.67482226
Si       2.80282637       1.87191079       5.30695476
Si      -0.00365042       6.74269805      -0.41059700
Si       0.83178100      -1.10000223       2.87303165
Si       4.90797734      -4.83392139       7.78542774
Si       1.60524913       1.64151765       3.13748074
Si      -0.21458844       3.39804465       6.14424964
Si      -0.14877064       3.30823316       2.75443558
Si       1.62631895      -1.88795939       7.70536710
22
Lattice="5.118935856691589 -1.4091436753701128 1.1656587731862085 -3.4326521053833154 11.471071042111914 -3.067614422953813 0.15377335584770968 -4.962576714412233 9.643687647276693" Properties=species:S:1:pos:R:3 unique_starting_index=18 config_type=initial n_minim_iter=8 stress="-0.0015705468894426317 -0.0014674616126105198 -0.0026811129622652495 -0.0014674616126105198 -0.0015310272036980004 -0.000314597948163307 -0.0026811129622652495 -0.000314597948163307 -0.002171083335861023" pbc="T T T"
Si       0.32101333       9.21253371      -0.06952265
Si       1.63260825      -0.42051824       5.68574764
Si      -0.03668447      -3.90716299       9.01934951
Si       4.05105288      -2.92054892       9.15006303
Si      -1.12799751       0.78054752       7.55863648
Si       3.74447747       1.81828900       1.87009116
Si       2.67663068      -0.36466393       1.57986693
Si       1.78890361       0.56360842       7.78060334
Si       2.18917665      -4.66408997       8.93365160
Si      -0.21428993       1.07634952       5.38232261
Si       3.73137402      -0.36607342       4.50436284
Si      -0.47989576       5.06765735       4.44165798
Si      -0.42017069      -1.35658335       4.96941480
Si      -1.89709495       8.14564241      -1.65281673
Si       2.83852972       1.92080178       5.26169177
Si       0.07443176       6.72926237      -0.40257353
Si       0.80830734      -1.08281224       2.83719402
Si       4.82529005      -4.75705157       7.72241274
Si       1.65765699       1.63818184       3.10683533
Si      -0.20374493       3.39252986       6.11841894
Si      -0.11756275       3.30084572       2.74337375
Si       1.58268270      -1.85442760       7.63778339
22
Lattice="5.156000627345803 -1.3529924181431707 1.227494143036924 -3.3603544569924186 11.368923423807326 -3.187169249831097 0.20307297574154196 -5.002017183148129 9.683358394435915" Properties=species:S:1:pos:R:3 unique_starting_index=18 config_type=initial n_minim_iter=9 stress="0.001180387241818497 0.0004328843271665189 0.0016612900653074248 0.0004328843271665189 -0.0026417845614249546 -0.0008536564640853336 0.0016612900653074248 -0.0008536564640853336 -0.0008223755409114243" pbc="T T T"
Si       0.45054059       9.14259143      -0.15465265
Si       1.69255500      -0.47930340       5.70023682
Si       0.02753632      -3.97418678       9.06592330
Si       4.12026668      -2.93054527       9.20393807
Si      -1.04651154       0.69557316       7.53438378
Si       3.83688312       1.83906788       1.88791383
Si       2.70430921      -0.33238080       1.60885445
Si       1.89950229       0.52197497       7.80801978
Si       2.25965048      -4.67394028       9.01960165
Si      -0.14379549       1.01202422       5.38292438
Si       3.82468923      -0.33236468       4.56280568
Si      -0.36335523       4.96930079       4.37807011
Si      -0.39367055      -1.40114350       4.95808824
Si      -1.81972508       8.10149852      -1.72166970
Si       2.94140007       1.90150159       5.28037487
Si       0.11316862       6.67139616      -0.43606142
Si       0.83220572      -1.08429517       2.83607027
Si       4.87732422      -4.72602071       7.80576928
Si       1.74952846       1.59323475       3.10678982
Si      -0.11984962       3.32070274       6.10344837
Si      -0.05495260       3.24030429       2.72341698
Si       1.65141125      -1.87339639       7.65276636
22
Lattice="5.106594085012108 -1.3300579934002208 1.2370761761429925 -3.2564282655792467 11.431035804955988 -3.227042486535713 0.17939946828605846 -5.060530953629873 9.722202209576052" Properties=species:S:1:pos:R:3 unique_starting_index=18 config_type=initial n_minim_iter=10 stress="-0.0033781685910077254 0.003097738232118056 0.0015258403492753416 0.003097738232118056 0.0030705565186986317 0.0004204792797696552 0.0015258403492753416 0.0004204792797696552 0.001071488038474046" pbc="T T T"
Si       0.52938371       9.21397630      -0.20244175
Si       1.68834452      -0.51328758       5.70800810
Si       0.01026996      -4.04688838       9.11620687
Si       4.04752480      -2.94439814       9.23502160
Si      -1.03289989       0.67319058       7.54313038
Si       3.84548898       1.88141671       1.88739861
Si       2.68365625      -0.30834535       1.61498666
Si       1.90794944       0.53255249       7.84306959
Si       2.23265652      -4.70363355       9.09218664
Si      -0.12917206       1.00021131       5.40289826
Si       3.80501818      -0.29726160       4.59577986
Si      -0.30618915       4.96740560       4.35632164
Si      -0.39916600      -1.43767367       4.95354090
Si      -1.73467793       8.17285105      -1.73840296
Si       2.93086006       1.91950334       5.29791346
Si       0.12513141       6.70979387      -0.43827633
Si       0.82097317      -1.09722577       2.83237275
Si       4.80978287      -4.73994146       7.83948242
Si       1.77570598       1.59022865       3.10780598
Si      -0.10401115       3.33199456       6.11872648
Si      -0.02892646       3.24171770       2.71567951
Si       1.62833547      -1.88530332       7.66324062
22
Lattice="5.184623343984507 -1.3094755613627114 1.2498977240622977 -3.325905004853587 11.232904773205595 -3.1804835160820053 0.21597288943167184 -4.929243705951452 9.726234322746626" Properties=species:S:1:pos:R:3 unique_starting_index=18 config_type=initial n_minim_iter=11 stress="0.005976927242541627 0.003138845892453672 0.0034790155018165863 0.003138845892453672 0.0031210366844073166 0.005537260312517883 0.0034790155018165863 0.005537260312517883 0.0026600768971269616" pbc="T T T"
Si       0.55462297       9.08836783      -0.19693970
Si       1.76317512      -0.51912511       5.70538094
Si       0.01634940      -3.97339821       9.15560260
Si       4.07568200      -2.84441067       9.26138457
Si      -1.06259864       0.70987039       7.55617683
Si       3.95592850       1.87083494       1.91593544
Si       2.74400435      -0.28039788       1.63032999
Si       1.98360694       0.59879964       7.90865790
Si       2.31929723      -4.56612770       9.17252059
Si      -0.11257541       1.01369482       5.44176607
Si       3.87070973      -0.23780699       4.65334524
Si      -0.27546169       4.86850223       4.37525604
Si      -0.39914879      -1.41524533       4.91272115
Si      -1.75230738       8.07543918      -1.67943012
Si       2.95074291       1.89335212       5.35826338
Si       0.04864611       6.58400503      -0.36298929
Si       0.84242364      -1.08555060       2.81430685
Si       4.90413221      -4.61903916       7.84874563
Si       1.84778417       1.55494417       3.12560649
Si      -0.11827104       3.32190947       6.15994848
Si      -0.01402265       3.16318735       2.71734342
Si       1.65353798      -1.80349416       7.65355036
22
Lattice="5.167983536532809 -1.381042567294774 1.2740608425140845 -3.4188479173608473 11.347688764069872 -3.409851301071423 0.2538698038833272 -5.130530490587644 9.848230705406397" Properties=species:S:1:pos:R:3 unique_starting_index=18 config_type=initial n_minim_iter=12 stress="0.0021928115171818263 0.0028556046920750985 0.0022961792031058236 0.0028556046920750985 0.006908800974384691 -0.00020917571270785487 0.0022961792031058236 -0.00020917571270785487 0.004930421774818805" pbc="T T T"
Si       0.48948485       9.14504992      -0.41837776
Si       1.79056570      -0.66589807       5.69877109
Si       0.01341869      -4.19002234       9.29252638
Si       4.03947314      -3.05589870       9.33266566
Si      -1.10941437       0.59504032       7.55977863
Si       3.96673816       1.82595063       1.88048526
Si       2.75429055      -0.32979645       1.64940587
Si       1.99118228       0.46979544       7.93377389
Si       2.34181756      -4.78430593       9.31599337
Si      -0.10296846       0.91563251       5.44492946
Si       3.84436891      -0.34181867       4.68390566
Si      -0.29523467       4.78804900       4.29262429
Si      -0.40102405      -1.54018587       4.90546128
Si      -1.82371149       8.16902573      -1.82352686
Si       2.85917128       1.74758469       5.35862199
Si      -0.08632026       6.59299719      -0.45740842
Si       0.84636411      -1.16606559       2.82102760
Si       4.90406576      -4.81444646       7.95137114
Si       1.83438520       1.46824978       3.09178672
Si      -0.16836478       3.23071269       6.08908501
Si      -0.01887116       3.05720906       2.63501577
Si       1.62053138      -1.96630238       7.68585592
22
Lattice="5.174707674084796 -1.4443855029031796 1.2441477071093392 -3.5662139268457596 11.334061234279785 -3.3733436858211676 0.2654728379040433 -5.088432028422082 9.846901244342568" Properties=species:S:1:pos:R:3 unique_starting_index=18 config_type=initial n_minim_iter=13 stress="-0.0025951063311488217 -0.0010476817469623177 -0.00011236900504040868 -0.0010476817469623177 0.0019405059003668936 0.001488689035645679 -0.00011236900504040868 0.001488689035645679 0.0018445372255762593" pbc="T T T"
Si       0.34916646       9.11318626      -0.41511908
Si       1.77822498      -0.66141918       5.68519158
Si      -0.00495673      -4.15293331       9.29543451
Si       4.02154506      -3.06996067       9.32596109
Si      -1.19286417       0.63630505       7.57149619
Si       3.92734817       1.76861481       1.86551808
Si       2.75853795      -0.37135968       1.64366550
Si       1.93219495       0.47296449       7.93183274
Si       2.33749660      -4.77242861       9.30727146
Si      -0.14441689       0.92725705       5.45286748
Si       3.80162411      -0.39784317       4.66218793
Si      -0.39424946       4.77363494       4.31941124
Si      -0.40229491      -1.52434591       4.89960527
Si      -1.93296911       8.14986930      -1.79579806
Si       2.76375778       1.69126364       5.36539832
Si      -0.18676132       6.56467580      -0.43906655
Si       0.84662894      -1.18265672       2.82060791
Si       4.93396488      -4.83897956       7.92296734
Si       1.78438513       1.45695441       3.08406306
Si      -0.25223853       3.23151138       6.08931530
Si      -0.05954894       3.02583742       2.62519365
Si       1.58446023      -1.96900782       7.68027956
22
Lattice="5.216608728288514 -1.4573303416626855 1.230964910884824 -3.6176836123632836 11.290937018671128 -3.4215712656781596 0.24604467811823216 -5.122038997759818 9.820203758230166" Properties=species:S:1:pos:R:3 unique_starting_index=18 config_type=initial n_minim_iter=14 stress="-0.0027282652629366335 -0.0007554117420743416 -0.002440158985465096 -0.0007554117420743416 -0.002412214598617868 -0.0005548420408936236 -0.002440158985465096 -0.0005548420408936236 -0.0025564907889538387" pbc="T T T"
Si       0.33837890       9.07020115      -0.49094926
Si       1.76915864      -0.70219829       5.64358132
Si      -0.03181575      -4.20104072       9.27697188
Si       4.02891336      -3.11732928       9.27869336
Si      -1.24941564       0.59408379       7.51910363
Si       3.96051853       1.74673602       1.82676570
Si       2.77801103      -0.38904292       1.63713169
Si       1.92025933       0.42686468       7.87429869
Si       2.32034844      -4.82063100       9.27783029
Si      -0.15223862       0.87759242       5.41602343
Si       3.82732193      -0.43934870       4.62468913
Si      -0.41802228       4.71362816       4.26651876
Si      -0.41651173      -1.55834146       4.86625224
Si      -1.96111997       8.12270926      -1.82673047
Si       2.73417156       1.63038056       5.32533704
Si      -0.22822971       6.52466683      -0.46888787
Si       0.84684463      -1.20159010       2.80111055
Si       4.95554850      -4.86709657       7.89163308
Si       1.78617534       1.42110810       3.04296490
Si      -0.28849134       3.17763854       6.01990787
Si      -0.05507615       2.95720211       2.58367924
Si       1.55706817      -2.01129805       7.63453732
22
Lattice="5.291635526746752 -1.5194719455069883 1.2605149408590828 -3.8110957845655262 11.251538229653569 -3.544120139287898 0.3384227357752491 -5.173108064787851 9.857288541282008" Properties=species:S:1:pos:R:3 unique_starting_index=18 config_type=initial n_minim_iter=15 stress="-0.0020947860565810683 -0.0022160901314578524 -0.0015476487259782831 -0.0022160901314578524 -0.008086755750088251 -0.0023943609147779148 -0.0015476487259782831 -0.0023943609147779148 -0.004571217449781609" pbc="T T T"
Si       0.24314799       9.00557703      -0.61700557
Si       1.78997839      -0.77247265       5.64300709
Si       0.03997803      -4.28376444       9.31639659
Si       4.13162938      -3.21305906       9.32590356
Si      -1.29810751       0.54514822       7.47026807
Si       3.99619333       1.68504002       1.81226275
Si       2.81248079      -0.43963066       1.66684411
Si       1.93753364       0.35484844       7.86099166
Si       2.39206650      -4.89749327       9.33767620
Si      -0.13008009       0.79117463       5.40636980
Si       3.90333477      -0.54626500       4.63331850
Si      -0.46416112       4.60538000       4.21060842
Si      -0.36315221      -1.60811145       4.85006090
Si      -2.05221087       8.09951645      -1.89327570
Si       2.69454738       1.50864375       5.33800618
Si      -0.34092592       6.47132830      -0.51665983
Si       0.87737915      -1.24756570       2.80193208
Si       5.09926610      -4.93963429       7.94330532
Si       1.81164872       1.36156015       3.01410887
Si      -0.32525232       3.09217114       5.96949651
Si      -0.03393041       2.84289587       2.53774278
Si       1.58518767      -2.08465004       7.63502851
22
Lattice="5.326012458648263 -1.5391578013983611 1.2794710843304902 -3.861148488850398 11.321079703252227 -3.587983693870216 0.3791540452638086 -5.227190655941478 9.853511176218191" Properties=species:S:1:pos:R:3 unique_starting_index=18 config_type=initial n_minim_iter=16 stress="0.004030906895404075 0.00042720386179971256 -0.00043028129079163325 0.00042720386179971256 0.000996279854504603 -0.0009496434103647749 -0.00043028129079163325 -0.0009496434103647749 -0.002118442228073602" pbc="T T T"
Si       0.25887406       9.06414778      -0.68399581
Si       1.77267505      -0.80168587       5.64837432
Si       0.08929945      -4.37230696       9.31397567
Si       4.19211015      -3.24173168       9.35074074
Si      -1.32653047       0.53989472       7.40545737
Si       4.02305521       1.70853802       1.81511772
Si       2.80785402      -0.44551576       1.68374029
Si       1.92583803       0.37364062       7.84116876
Si       2.40399412      -4.95016064       9.36429584
Si      -0.10845719       0.74615360       5.39719682
Si       3.97197964      -0.58984853       4.64123292
Si      -0.46356808       4.58494693       4.16784705
Si      -0.30546812      -1.65256089       4.83445040
Si      -2.00915095       8.16559346      -1.90091659
Si       2.67501752       1.49701818       5.35028434
Si      -0.35997597       6.52241739      -0.53497743
Si       0.88035886      -1.27519215       2.79131425
Si       5.16421224      -4.97045597       7.95573497
Si       1.86867261       1.36395894       2.99506422
Si      -0.32613702       3.09038828       5.95297504
Si       0.01306647       2.80259623       2.51838133
Si       1.59815937      -2.10853895       7.62215803
22
Lattice="5.258140843003647 -1.5532672853179061 1.3215549592985874 -3.8728095386203827 11.309483466029201 -3.6067333634652607 0.45966929638596155 -5.181812544107404 10.009682308980256" Properties=species:S:1:pos:R:3 unique_starting_index=18 config_type=initial n_minim_iter=17 stress="-0.0007337729956801922 0.00036142287149321556 0.0019286479448346514 0.00036142287149321556 0.00211330237802043 0.0023899271594174398 0.0019286479448346514 0.0023899271594174398 0.0064566659837409605" pbc="T T T"
Si       0.23575721       9.04549337      -0.66233977
Si       1.79473204      -0.79636496       5.76698082
Si       0.15737877      -4.35009344       9.46341207
Si       4.19936697      -3.20492424       9.53628866
Si      -1.27980853       0.57075627       7.52387070
Si       3.97612510       1.70569995       1.90405374
Si       2.76193337      -0.43338650       1.71385206
Si       1.91696940       0.42717969       8.00507978
Si       2.45673374      -4.91270833       9.54112201
Si      -0.09362231       0.76604514       5.49674765
Si       3.94241931      -0.58441348       4.75733252
Si      -0.45408977       4.57657464       4.25518202
Si      -0.24749080      -1.65510482       4.91482710
Si      -1.98527923       8.16350236      -1.88503355
Si       2.65270157       1.51236873       5.47778900
Si      -0.37990923       6.52940022      -0.51853637
Si       0.87151169      -1.27089050       2.83153133
Si       5.14259161      -4.94286506       8.09968939
Si       1.88971300       1.36939713       3.07310056
Si      -0.29854357       3.10877363       6.08912822
Si       0.01249934       2.80096654       2.57534311
Si       1.63242225      -2.06938742       7.76889215
22
Lattice="5.2616342878992075 -1.625819768406565 1.3267363977293665 -3.989170784619444 11.428510986615276 -3.738034615394394 0.4981916051416587 -5.327133754703104 10.014959768892528" Properties=species:S:1:pos:R:3 unique_starting_index=18 config_type=initial n_minim_iter=18 stress="-0.0037799393080668515 0.002490042941403009 -0.0011737120795352856 0.002490042941403009 0.003887945306101626 0.00103507659429315 -0.0011737120795352856 0.00103507659429315 -0.0013721525124724316" pbc="T T T"
Si       0.19768572       9.09347254      -0.83441458
Si       1.82432001      -0.89918658       5.75032248
Si       0.14231291      -4.53506109       9.46307386
Si       4.24736808      -3.34765511       9.54248591
Si      -1.36689415       0.49848218       7.43207124
Si       3.98090278       1.68944340       1.91676213
Si       2.72642883      -0.45386175       1.67822573
Si       1.82504068       0.40139570       7.94161897
Si       2.47962360      -5.10063778       9.54594615
Si      -0.12828206       0.68956971       5.42434290
Si       3.92468452      -0.71041342       4.73951573
Si      -0.52058276       4.50709771       4.15858295
Si      -0.20101237      -1.80036029       4.90372246
Si      -1.98706902       8.23324912      -1.94819574
Si       2.55639940       1.43282063       5.43498898
Si      -0.44479541       6.60615440      -0.63693498
Si       0.82785049      -1.34086837       2.81152132
Si       5.12079604      -5.08078277       8.09663982
Si       1.91949392       1.34443614       3.04071051
Si      -0.32856523       3.04786388       5.98761328
Si       0.00876135       2.70837879       2.50652599
Si       1.61701763      -2.16592214       7.77525464
22
Lattice="5.300962705217593 -1.6803836524872968 1.3550105019803989 -4.141042711000892 11.426672740322392 -3.8146088596859107 0.5893813672459259 -5.356797404926159 10.046392436090922" Properties=species:S:1:pos:R:3 unique_starting_index=18 config_type=initial n_minim_iter=19 stress="-0.0039037699128153937 0.0006957387593070367 -0.00039519994013983214 0.0006957387593070367 -2.1394404201551917e-05 0.0003389071372124687 -0.00039519994013983214 0.0003389071372124687 -0.00316449608303183" pbc="T T T"
Si       0.12550008       9.05283309      -0.90207426
Si       1.86251562      -0.95798465       5.76672709
Si       0.21198343      -4.58773319       9.49788418
Si       4.34132268      -3.41765665       9.58380653
Si      -1.37339836       0.47123428       7.41714742
Si       4.00413154       1.64949222       1.93677183
Si       2.73120352      -0.47747557       1.68516822
Si       1.83633602       0.36822226       7.94692303
Si       2.56548472      -5.17029201       9.57681733
Si      -0.11318086       0.64557825       5.41603026
Si       3.96834805      -0.77638230       4.76177114
Si      -0.55261231       4.45822377       4.13419944
Si      -0.16173001      -1.84572439       4.90641083
Si      -2.06950004       8.22567431      -1.98513711
Si       2.54021984       1.37844331       5.44544807
Si      -0.53633886       6.58938050      -0.67494251
Si       0.84077637      -1.36248892       2.81026041
Si       5.18633078      -5.14170017       8.13813672
Si       1.93734147       1.30172704       3.04491920
Si      -0.33928174       3.01044543       5.96070154
Si       0.00162320       2.64215594       2.49720487
Si       1.65634781      -2.20023630       7.80083357
22
Lattice="5.346049825862149 -1.7207949213513072 1.3807828463911733 -4.2686349762418745 11.403836451023642 -3.8869177181237813 0.6603755218033741 -5.374971016616099 10.101697076320292" Properties=species:S:1:pos:R:3 unique_starting_index=18 config_type=initial n_minim_iter=20 stress="-0.0004948051447351184 -0.0005925584084666686 -2.4633057020994252e-05 -0.0005925584084666686 -0.0029775946553986356 -0.0019813415690709637 -2.4633057020994252e-05 -0.0019813415690709637 -0.0014544203385224732" pbc="T T T"
Si       0.05808308       8.99582023      -0.94621600
Si       1.90478663      -0.99738462       5.80951155
Si       0.26081829      -4.61746417       9.53804202
Si       4.45046080      -3.47487117       9.65947699
Si      -1.36855018       0.42756722       7.43628406
Si       4.02258391       1.60983698       1.96249187
Si       2.73607902      -0.49486740       1.68169694
Si       1.84336576       0.32949596       7.96394221
Si       2.64560649      -5.21811305       9.60358301
Si      -0.11376220       0.60511021       5.41740790
Si       3.99422585      -0.84163654       4.78005194
Si      -0.59261298       4.40986438       4.12933585
Si      -0.13422841      -1.87449192       4.94427213
Si      -2.15001593       8.18852466      -2.03062450
Si       2.54941065       1.33939613       5.45423388
Si      -0.57883406       6.56906587      -0.72771114
Si       0.85641514      -1.38696810       2.83410409
Si       5.24497360      -5.19087536       8.19308172
Si       1.94026935       1.28127499       3.07175134
Si      -0.32615231       2.96406250       5.95736539
Si      -0.02131858       2.60679050       2.50267470
Si       1.70533797      -2.22324160       7.86608528
22
Lattice="5.402658966092474 -1.7674520768999538 1.4032150211906804 -4.441673362648233 11.355897976163064 -3.8651517454953903 0.7609211589071692 -5.301841679111155 10.124337100455582" Properties=species:S:1:pos:R:3 unique_starting_index=18 config_type=initial n_minim_iter=21 stress="0.0066975213905713675 -0.002736935734441839 0.0004802108685861753 -0.002736935734441839 -0.0043991142695113195 0.0005042630325928021 0.0004802108685861753 0.0005042630325928021 0.00033037107894408454" pbc="T T T"
Si      -0.03844131       8.92920324      -0.90921069
Si       1.95583944      -1.00984824       5.87558027
Si       0.34105208      -4.58454941       9.55342886
Si       4.60323838      -3.45931803       9.75076466
Si      -1.32780490       0.41832295       7.48264046
Si       4.04907263       1.58244782       2.00956808
Si       2.72743813      -0.48942305       1.65982870
Si       1.87379177       0.35410753       7.98864987
Si       2.77269216      -5.18580507       9.57225981
Si      -0.11437841       0.59100702       5.43521833
Si       4.01847038      -0.87708322       4.79397685
Si      -0.64849157       4.38960580       4.16237757
Si      -0.11359832      -1.84576805       4.98160308
Si      -2.28978962       8.14254603      -2.01830132
Si       2.57337456       1.37065317       5.46867520
Si      -0.64934644       6.53963408      -0.72414654
Si       0.89992306      -1.40851319       2.86284111
Si       5.31050879      -5.19111278       8.21618539
Si       1.92855154       1.29089366       3.14152587
Si      -0.28605133       2.97577023       5.99765981
Si      -0.07675431       2.61153522       2.55409677
Si       1.77858226      -2.15128310       7.94754825
