16
Lattice="6.537511098907901 0.46224685109979186 1.77197218293551 2.8368862882491737 4.3091747973471115 1.1377566945070139 6.633250042798315 1.9485370258622008 14.282387976037075" Properties=species:S:1:pos:R:3 unique_starting_index=3 config_type=initial n_minim_iter=1 energy=-2606.6106261725868 free_energy=-2606.6106261725868 pbc="T T T"
Si       8.12869434       4.33068804       9.25569299
Si      10.23846697       3.04018436      15.27028104
Si       2.57954156       2.80105499       4.20652988
Si       6.37171985       3.14515470       3.16070426
Si       9.08864382       1.05519126       6.98155943
Si      10.45779573       3.64768193       9.26952962
Si       4.83810785       2.89875849       5.03665660
Si       8.72071851       3.28747800       3.65996478
Si       6.62906751       2.23482195      10.43726126
Si       8.63617718       1.88461553       9.18778713
Si      11.32577715       4.11377166      11.51024945
Si       4.86054766       0.58353795       5.85952513
Si       7.56351523       5.06483075      11.44420762
Si       7.52636253       2.97375976      12.48105744
Si       9.85164450       2.89611896      12.91208440
Si       5.88793715       1.28444017       1.72492573
16
Lattice="6.538148390252139 0.4619935034335399 1.772755588915978 2.837023992036182 4.309218034744974 1.1381445689421654 6.634623431195071 1.9482441151017602 14.285818853187617" Properties=species:S:1:pos:R:3 unique_starting_index=3 config_type=initial n_minim_iter=2 stress="0.0001586644221116935 8.66193308068828e-06 1.1506676193740229e-06 8.66193308068828e-06 0.00014425736214921753 5.748902585184028e-06 1.1506676193740229e-06 5.748902585184028e-06 0.0001611086105399546" pbc="T T T"
Si       8.12981063       4.33045266       9.25819513
Si      10.24009037       3.03973536      15.27421242
Si       2.57993617       2.80097815       4.20757320
Si       6.37227828       3.14495615       3.16164085
Si       9.08985200       1.05484637       6.98363695
Si      10.45911298       3.64734920       9.27216337
Si       4.83873746       2.89867065       5.03791553
Si       8.72160922       3.28720038       3.66130696
Si       6.63016188       2.23465717      10.43986669
Si       8.63741648       1.88424589       9.19020688
Si      11.32727262       4.11339448      11.51342702
Si       4.86123851       0.58336247       5.86102755
Si       7.56457702       5.06461515      11.44703681
Si       7.52763741       2.97350710      12.48420405
Si       9.85318467       2.89571922      12.91539757
Si       5.88855587       1.28429989       1.72565940
16
Lattice="6.537116724035619 0.4608142845742482 1.7743485891182709 2.836037802925745 4.307460898130104 1.138744871725874 6.635771024218443 1.9461083650830298 14.289823225836887" Properties=species:S:1:pos:R:3 unique_starting_index=3 config_type=initial n_minim_iter=3 stress="-0.00010919893416148373 -6.779459403377794e-06 0.0001277790265927171 -6.779459403377794e-06 -0.00016817401129061693 -3.1139771279407634e-06 0.0001277790265927171 -3.1139771279407634e-06 0.00015206726009107333" pbc="T T T"
Si       8.12946715       4.32752934       9.26167529
Si      10.24023946       3.03647094      15.27938542
Si       2.57993978       2.79936154       4.20882464
Si       6.37094803       3.14274508       3.16286025
Si       9.08948669       1.05301652       6.98689278
Si      10.45831042       3.64439220       9.27604693
Si       4.83842002       2.89701998       5.03928938
Si       8.72037471       3.28463408       3.66379242
Si       6.63041247       2.23301658      10.44308155
Si       8.63726206       1.88187095       9.19333743
Si      11.32658120       4.11001411      11.51794483
Si       4.86104301       0.58239922       5.86292126
Si       7.56412709       5.06140133      11.45036413
Si       7.52801925       2.97111784      12.48818457
Si       9.85338348       2.89275686      12.91963166
Si       5.88783503       1.28321765       1.72711485
16
Lattice="6.537518539213285 0.4591227024208983 1.7721834263161045 2.8350649363525053 4.307650655043818 1.137424063066528 6.632858163505588 1.943952321294198 14.283324827326586" Properties=species:S:1:pos:R:3 unique_starting_index=3 config_type=initial n_minim_iter=4 stress="0.00012822875997690672 -0.00013872987233541346 -7.699319123423808e-06 -0.00013872987233541346 7.199602538676148e-05 -0.00010560104052147389 -7.699319123423808e-06 -0.00010560104052147389 -0.00015194994151320994" pbc="T T T"
Si       8.12759786       4.32578260       9.25689950
Si      10.23664570       3.03300975      15.27231162
Si       2.57887336       2.79857904       4.20666448
Si       6.36988996       3.14118206       3.15892647
Si       9.08945278       1.05068417       6.98274139
Si      10.45683455       3.64210741       9.27072892
Si       4.83745198       2.89647205       5.03518791
Si       8.72056519       3.28258355       3.66088608
Si       6.62810875       2.23226846      10.43789117
Si       8.63603346       1.87906391       9.18745486
Si      11.32433660       4.10733774      11.51164496
Si       4.85963476       0.58127906       5.85948480
Si       7.56021955       5.05958021      11.44392346
Si       7.52520938       2.96932006      12.48239341
Si       9.85116730       2.88979201      12.91272878
Si       5.88859665       1.28240002       1.72513056
16
Lattice="6.536496447571263 0.4610704656703771 1.7718328886413357 2.835583327534483 4.3086295400127455 1.138131406763532 6.630863400113442 1.948404824342616 14.285013125055363" Properties=species:S:1:pos:R:3 unique_starting_index=3 config_type=initial n_minim_iter=5 stress="-1.6458693557119237e-06 -1.2875788219685667e-05 -7.855922581987855e-05 -1.2875788219685667e-05 3.515165822691684e-05 2.3739038617972285e-05 -7.855922581987855e-05 2.3739038617972285e-05 1.0132495883386147e-05" pbc="T T T"
Si       8.12654035       4.32962631       9.25819267
Si      10.23423607       3.03845033      15.27405888
Si       2.57873062       2.80005064       4.20758472
Si       6.36942255       3.14338290       3.15917679
Si       9.08770571       1.05426326       6.98297548
Si      10.45526005       3.64656316       9.27172284
Si       4.83699586       2.89874605       5.03576987
Si       8.71975972       3.28543736       3.66118853
Si       6.62656797       2.23617717      10.43906999
Si       8.63425518       1.88293686       9.18816822
Si      11.32248453       4.11245537      11.51296581
Si       4.85847140       0.58365495       5.85991480
Si       7.55895790       5.06370319      11.44565465
Si       7.52354957       2.97371420      12.48397293
Si       9.84905511       2.89470850      12.91411941
Si       5.88788164       1.28416320       1.72499315
16
Lattice="6.537089256846332 0.4619346065002122 1.7728791030785516 2.8364643119278994 4.30894417504082 1.1385213223473372 6.6337751763511115 1.9490995979751393 14.285691226363403" Properties=species:S:1:pos:R:3 unique_starting_index=3 config_type=initial n_minim_iter=6 stress="1.4977676661091455e-05 7.774106586953095e-05 5.331791484183774e-05 7.774106586953095e-05 4.842083723220084e-06 7.931396763201423e-06 5.331791484183774e-05 7.931396763201423e-06 -3.733044169605467e-05" pbc="T T T"
Si       8.12898555       4.33055094       9.25912649
Si      10.23766298       3.03958483      15.27526282
Si       2.57980743       2.80040676       4.20793252
Si       6.37073814       3.14422092       3.16017410
Si       9.08924388       1.05528732       6.98420403
Si      10.45773741       3.64783866       9.27319100
Si       4.83849545       2.89933727       5.03636123
Si       8.72105230       3.28654920       3.66248283
Si       6.62890518       2.23696816      10.43982361
Si       8.63629042       1.88397928       9.18941436
Si      11.32537180       4.11385965      11.51452450
Si       4.85991751       0.58419054       5.86064063
Si       7.56180165       5.06454506      11.44649611
Si       7.52638829       2.97456285      12.48480107
Si       9.85191193       2.89582713      12.91547685
Si       5.88842836       1.28476318       1.72588644
16
Lattice="6.536460730566947 0.46081819675342267 1.7731928464119069 2.835564089713575 4.308025140119014 1.1385625955494147 6.633009740114896 1.9473505796169686 14.287919812382418" Properties=species:S:1:pos:R:3 unique_starting_index=3 config_type=initial n_minim_iter=7 stress="-6.582476017360614e-05 2.9071641179908314e-05 4.2044925161153036e-05 2.9071641179908314e-05 -4.9872593162817454e-05 1.2972460643400701e-05 4.2044925161153036e-05 1.2972460643400701e-05 5.3252717504639346e-05" pbc="T T T"
Si       8.12774380       4.32847916       9.26026217
Si      10.23655752       3.03699493      15.27761781
Si       2.57899704       2.79972396       4.20870074
Si       6.37002388       3.14286763       3.16059497
Si       9.08817702       1.05326845       6.98515314
Si      10.45646203       3.64556197       9.27470556
Si       4.83787053       2.89821908       5.03687049
Si       8.71965121       3.28474189       3.66299538
Si       6.62809201       2.23555810      10.44137287
Si       8.63515911       1.88210884       9.19099377
Si      11.32375433       4.11142988      11.51641980
Si       4.85986072       0.58313603       5.86173635
Si       7.56027671       5.06248407      11.44802659
Si       7.52550440       2.97272345      12.48664272
Si       9.85053410       2.89348111      12.91774851
Si       5.88745483       1.28330314       1.72609200
