16
Lattice="4.31820999999999 2.8900052826044724e-07 9.881576607428467e-14 -5.458002802346335e-07 8.155279999999518 2.7531618900777993e-06 -1.779932848622321 -4.077643150183695 8.978455047942447" Properties=species:S:1:pos:R:3 unique_starting_index=69 config_type=initial n_minim_iter=1 pbc="T T T"
Si       0.70043759       0.80048349       5.16791988
Si       1.83783927       4.87812402       3.81053667
Si       1.83783938       3.27715447       3.81053612
Si       0.70043769      -0.80048607       5.16791934
Si       2.26164724       6.06208224       1.59762051
Si       0.27662945       1.98444016       7.38083684
Si       0.27662972      -1.98444429       7.38083550
Si       2.26164751       2.09319780       1.59761917
Si       1.61061032       3.27749792       7.05020114
Si       0.92766675      -0.80014040       1.92825433
Si       0.92766664       0.80014003       1.92825487
Si       1.61061021       4.87777835       7.05020168
Si       0.34631352       6.47843718       0.72267905
Si       2.19196312       2.40079476       8.25577858
Si       2.19196345      -2.40079923       8.25577696
Si       0.34631384       1.67684319       0.72267743
16
Lattice="4.340766346357521 2.8545619257077164e-07 0.014970536332966213 -5.515233001233239e-07 8.240792652317705 2.782030325601265e-06 -1.7581035414578534 -4.120399492732988 9.031332816683209" Properties=species:S:1:pos:R:3 unique_starting_index=69 config_type=initial n_minim_iter=2 pbc="T T T"
Si       0.72200332       0.80968302       5.20433074
Si       1.86065917       4.93007988       3.84197414
Si       1.86065928       3.31071125       3.84197359
Si       0.72200343      -0.80968561       5.20433019
Si       2.27961500       6.12496347       1.61615829
Si       0.30304734       2.00456505       7.43014739
Si       0.30304760      -2.00456920       7.43014604
Si       2.27961527       2.11582922       1.61615694
Si       1.64358916       3.31190131       7.10131658
Si       0.93907355      -0.80849332       1.94498720
Si       0.93907344       0.80849296       1.94498775
Si       1.64358906       4.92888759       7.10131712
Si       0.35047923       6.54588229       0.72870305
Si       2.23218306       2.42548353       8.31760292
Si       2.23218338      -2.42548802       8.31760128
Si       0.35047955       1.69491074       0.72870141
16
Lattice="4.469798915286262 2.6035542757407967e-07 0.11490282868123855 -5.878528330536516e-07 8.7836240207281 2.9652861593847165e-06 -1.603509747385852 -4.391815273083204 9.34677617918852" Properties=species:S:1:pos:R:3 unique_starting_index=69 config_type=initial n_minim_iter=3 pbc="T T T"
Si       0.86243385       0.86857803       5.42580889
Si       2.00385494       5.26039058       4.03587180
Si       2.00385505       3.52323186       4.03587121
Si       0.86243397      -0.86858070       5.42580830
Si       2.38833729       6.52369326       1.73334840
Si       0.47795132       2.13187910       7.72833315
Si       0.47795161      -2.13188337       7.72833171
Si       2.38833758       2.25993079       1.73334696
Si       1.85559249       3.53048835       7.41309133
Si       1.01069653      -0.86132191       2.04858819
Si       1.01069641       0.86132154       2.04858877
Si       1.85559237       5.25313180       7.41309191
Si       0.37670021       6.97387944       0.76590708
Si       2.48958835       2.58206489       8.69577477
Si       2.48958869      -2.58206955       8.69577303
Si       0.37670055       1.80974499       0.76590533
16
Lattice="4.573545729710615 2.671002819119212e-07 0.11549083086593684 -6.052668564362011e-07 9.043822197078208 3.0531271284115472e-06 -1.6450508029748163 -4.521914351438725 9.309453892852925" Properties=species:S:1:pos:R:3 unique_starting_index=69 config_type=initial n_minim_iter=4 pbc="T T T"
Si       0.87999400       0.89946539       5.40475460
Si       2.04850053       5.42137703       4.02019192
Si       2.04850065       3.62244363       4.02019132
Si       0.87999412      -0.89946801       5.40475399
Si       2.44634131       6.71312613       1.72824010
Si       0.48215305       2.19121289       7.69670729
Si       0.48215334      -2.19121711       7.69670581
Si       2.44634161       2.33069613       1.72823862
Si       1.89848661       3.63686826       7.38316589
Si       1.03000816      -0.88504110       2.04177943
Si       1.03000804       0.88504076       2.04178003
Si       1.89848650       5.40695011       7.38316649
Si       0.38511365       7.18130907       0.76394332
Si       2.54338065       2.65939545       8.66100439
Si       2.54338100      -2.65940005       8.66100259
Si       0.38511400       1.86251357       0.76394153
16
Lattice="5.764763804126361 1.5690934012212127e-07 0.6780458844558553 -1.1550274719021343e-06 17.258277003212008 5.826265995021379e-06 -0.9663925819909024 -8.62914194534993 10.009302546636594" Properties=species:S:1:pos:R:3 unique_starting_index=69 config_type=initial n_minim_iter=5 pbc="T T T"
Si       1.74656200       1.89095693       6.03580235
Si       3.05180801      10.52009599       4.65155118
Si       3.05180827       6.73818001       4.65154991
Si       1.74656225      -1.89095905       6.03580107
Si       3.31754890      12.74776461       2.20563191
Si       1.48082081       4.11862387       8.48172313
Si       1.48082136      -4.11862767       8.48172034
Si       3.31754945       4.51051308       2.20562913
Si       3.27353584       6.85895737       8.28273596
Si       1.52483465      -1.77017927       2.40461510
Si       1.52483442       1.77017957       2.40461629
Si       3.27353561      10.39931621       8.28273716
Si       0.57846711      13.67071104       0.89285612
Si       4.21990248       5.04156977       9.79449954
Si       4.21990315      -5.04157410       9.79449614
Si       0.57846778       3.58756717       0.89285272
16
Lattice="4.843996152918761 1.2639951309825834e-07 0.5858831031898165 -9.665647474476121e-07 14.44229039307772 4.8756098520078004e-06 -0.778484880156082 -7.221148062949369 8.33640627710802" Properties=species:S:1:pos:R:3 unique_starting_index=69 config_type=initial n_minim_iter=6 pbc="T T T"
Si       1.48657100       1.58783570       5.03506310
Si       2.57893925       8.80898136       3.88723056
Si       2.57893946       5.63330820       3.88722948
Si       1.48657121      -1.58783745       5.03506203
Si       2.79283907      10.68410090       1.84575881
Si       1.27267093       3.46295384       7.07653611
Si       1.27267139      -3.46295700       7.07653378
Si       2.79283954       3.75819006       1.84575647
Si       2.78034470       5.71157105       6.92000237
Si       1.28516597      -1.50957259       2.00228920
Si       1.28516576       1.50957286       2.00229021
Si       2.78034450       8.73071649       6.92000339
Si       0.50352249      11.45394387       0.75752384
Si       3.56198741       4.23279637       8.16477160
Si       3.56198798      -4.23279997       8.16476875
Si       0.50352305       2.98834753       0.75752098
16
Lattice="3.505545813008147 -8.791970603529895e-08 0.9553879514367047 -6.841645520126205e-07 10.222701729669472 3.4511080922658138e-06 0.5414913739917444 -5.111352858355978 6.012456145804052" Properties=species:S:1:pos:R:3 unique_starting_index=69 config_type=initial n_minim_iter=7 pbc="T T T"
Si       1.71028509       1.12803409       3.84198438
Si       2.33675115       6.23938523       3.12586273
Si       2.33675131       3.98331572       3.12586197
Si       1.71028524      -1.12803543       3.84198362
Si       2.22106974       7.58735606       1.64885942
Si       1.82596632       2.47600393       5.31898860
Si       1.82596665      -2.47600626       5.31898692
Si       2.22107008       2.63534587       1.64885775
Si       2.85705676       4.05467842       5.34923016
Si       1.18997978      -1.05667130       1.61861547
Si       1.18997964       1.05667139       1.61861619
Si       2.85705662       6.16802110       5.34923087
Si       0.49313250       8.07269208       0.63792562
Si       3.55390350       2.96133950       6.32992272
Si       3.55390389      -2.96134228       6.32992072
Si       0.49313290       2.15001031       0.63792362
16
Lattice="4.670952445147197 -1.2533924969048036e-07 1.297266183816285 -9.209497606728344e-07 13.760716903466133 4.645515710520205e-06 0.7719557234724673 -6.880361225912084 8.370569774030146" Properties=species:S:1:pos:R:3 unique_starting_index=69 config_type=initial n_minim_iter=8 pbc="T T T"
Si       2.31156093       1.51335077       5.34040088
Si       3.13134596       8.39370962       4.32743907
Si       3.13134616       5.36700616       4.32743804
Si       2.31156114      -1.51335269       5.34039986
Si       2.96168027      10.16880652       2.27638246
Si       2.48122638       3.28844631       7.39145869
Si       2.48122682      -3.28844959       7.39145647
Si       2.96168071       3.59191062       2.27638024
Si       3.84576411       5.49468086       7.41651357
Si       1.59714317      -1.38567600       2.25132443
Si       1.59714299       1.38567607       2.25132536
Si       3.84576392       8.26603293       7.41651450
Si       0.67422424      10.85008026       0.89751947
Si       4.76868232       3.96971942       8.77032214
Si       4.76868286      -3.96972333       8.77031946
Si       0.67422477       2.91063751       0.89751679
16
Lattice="4.552303162223527 -1.1333943502846737e-07 1.2381993094541166 -8.90550984929278e-07 13.306502143385085 4.492176184946682e-06 0.6980497219794948 -6.653253768245475 8.12597821925345" Properties=species:S:1:pos:R:3 unique_starting_index=69 config_type=initial n_minim_iter=9 pbc="T T T"
Si       2.22165609       1.46306895       5.17608641
Si       3.02869557       8.11632041       4.18809498
Si       3.02869577       5.19018065       4.18809399
Si       2.22165628      -1.46307081       5.17608542
Si       2.87719593       9.83403026       2.19792281
Si       2.37315549       3.18077748       7.16625973
Si       2.37315592      -3.18078067       7.16625758
Si       2.87719636       3.47247211       2.19792066
Si       3.70474594       5.31208871       7.18421274
Si       1.54560609      -1.34116082       2.17996675
Si       1.54560591       1.34116088       2.17996766
Si       3.70474576       7.99441041       7.18421364
Si       0.65184298      10.49213661       0.86819447
Si       4.59850836       3.83888322       8.49598852
Si       4.59850888      -3.83888701       8.49598592
Si       0.65184349       2.81436637       0.86819188
16
Lattice="4.33756049984537 -8.851560443775903e-08 1.1220957482407303 -8.219366398417893e-07 12.281275094058104 4.146067159612837e-06 0.5451615262082761 -6.140640078462994 7.606561801360342" Properties=species:S:1:pos:R:3 unique_starting_index=69 config_type=initial n_minim_iter=10 pbc="T T T"
Si       2.04759114       1.34705885       4.83055606
Si       2.83512978       7.48769676       3.89810502
Si       2.83512996       4.79357731       3.89810411
Si       2.04759132      -1.34706061       4.83055515
Si       2.72114279       9.07501829       2.03833308
Si       2.16157791       2.93437913       6.69032908
Si       2.16157831      -2.93438213       6.69032709
Si       2.72114318       3.20625702       2.03833110
Si       3.43208137       4.90263842       6.69529135
Si       1.45063989      -1.23799768       2.03336799
Si       1.45063973       1.23799773       2.03336883
Si       3.43208120       7.37863384       6.69529218
Si       0.60858145       9.68364791       0.80654683
Si       4.27413918       3.54300821       7.92211573
Si       4.27413965      -3.54301176       7.92211334
Si       0.60858192       2.59762794       0.80654444
16
Lattice="4.496527575728027 -8.338847366412528e-08 1.1384228242639467 -8.356850783637638e-07 12.486702539852176 4.215417940805638e-06 0.5135839064777653 -6.24335382809389 7.679491392771868" Properties=species:S:1:pos:R:3 unique_starting_index=69 config_type=initial n_minim_iter=11 pbc="T T T"
Si       2.09220574       1.36517367       4.87855593
Si       2.91790462       7.60852531       3.93936189
Si       2.91790480       4.87817621       3.93936096
Si       2.09220593      -1.36517543       4.87855501
Si       2.81239689       9.22152637       2.06413642
Si       2.19771325       2.97817347       6.75378249
Si       2.19771365      -2.97817649       6.75378048
Si       2.81239729       3.26517641       2.06413440
Si       3.51319975       4.98921058       6.75900160
Si       1.49691096      -1.25413923       2.05891445
Si       1.49691079       1.25413929       2.05891530
Si       3.51319958       7.49748911       6.75900245
Si       0.62073539       9.84034880       0.81118942
Si       4.38937468       3.59699536       8.00672991
Si       4.38937516      -3.59699893       8.00672748
Si       0.62073587       2.64635452       0.81118699
16
Lattice="4.529684711593881 -7.961017901904384e-08 1.1338041748036622 -8.290190619021433e-07 12.387099700877757 4.181792765686941e-06 0.4903136529110321 -6.193552380327023 7.591109613221002" Properties=species:S:1:pos:R:3 unique_starting_index=69 config_type=initial n_minim_iter=12 pbc="T T T"
Si       2.09146516       1.35060785       4.82534264
Si       2.92853209       7.54415807       3.89957472
Si       2.92853227       4.84294063       3.89957381
Si       2.09146534      -1.35060959       4.82534173
Si       2.82890318       9.14496732       2.04758314
Si       2.19109387       2.95141587       6.67733530
Si       2.19109426      -2.95141884       6.67733331
Si       2.82890357       3.24213261       2.04758115
Si       3.51406793       4.95200028       6.68356551
Si       1.50592967      -1.24154813       2.04135011
Si       1.50592950       1.24154820       2.04135095
Si       3.51406777       7.43509661       6.68356634
Si       0.61952028       9.75853779       0.80059560
Si       4.40047668       3.56498579       7.92432326
Si       4.40047716      -3.56498931       7.92432085
Si       0.61952076       2.62856269       0.80059319
16
Lattice="4.582431904779161 -7.459476726690854e-08 1.1294046262591648 -8.248887248444652e-07 12.325384660154823 4.160958230027128e-06 0.4594240852359957 -6.162694829770804 7.495544543301495" Properties=species:S:1:pos:R:3 unique_starting_index=69 config_type=initial n_minim_iter=13 pbc="T T T"
Si       2.09391681       1.33909372       4.76786729
Si       2.94793808       7.50178642       3.85708544
Si       2.94793826       4.82359727       3.85708454
Si       2.09391699      -1.33909543       4.76786639
Si       2.85599495       9.09565585       2.03020107
Si       2.18585973       2.93296193       6.59475274
Si       2.18586013      -2.93296486       6.59475076
Si       2.85599534       3.22972905       2.03019909
Si       3.52140595       4.93043288       6.60191262
Si       1.52044929      -1.23225804       2.02303838
Si       1.52044913       1.23225811       2.02303921
Si       3.52140578       7.39494903       6.60191345
Si       0.61882404       9.70566390       0.78872427
Si       4.42303056       3.54296945       7.83622995
Si       4.42303103      -3.54297291       7.83622756
Si       0.61882451       2.61972154       0.78872188
16
Lattice="4.69728392284065 -6.116380016031305e-08 1.11238890324703 -8.187749227796853e-07 12.234032954280151 4.130118576010347e-06 0.37670373309519634 -6.1170189073858285 7.273431320641602" Properties=species:S:1:pos:R:3 unique_starting_index=69 config_type=initial n_minim_iter=14 pbc="T T T"
Si       2.09005007       1.31778802       4.63140579
Si       2.98393651       7.43480485       3.75441800
Si       2.98393669       4.79922719       3.75441711
Si       2.09005025      -1.31778964       4.63140490
Si       2.91198562       9.02051755       1.98478221
Si       2.16200075       2.90349953       6.40104265
Si       2.16200114      -2.90350234       6.40104069
Si       2.91198601       3.21351568       1.98478025
Si       3.52452813       4.89998633       6.40836012
Si       1.54945880      -1.21702878       1.97746195
Si       1.54945863       1.21702887       1.97746278
Si       3.52452797       7.33404399       6.40836094
Si       0.61477196       9.62460856       0.76068313
Si       4.45921433       3.50759002       7.62514213
Si       4.45921480      -3.50759335       7.62513977
Si       0.61477243       2.60942519       0.76068077
16
Lattice="4.824473092183385 -3.829484461535945e-08 1.069862212939199 -8.180411321013614e-07 12.223068686534473 4.1264171295282265e-06 0.23585549908051495 -6.111536705160666 7.043039038197163" Properties=species:S:1:pos:R:3 unique_starting_index=69 config_type=initial n_minim_iter=15 pbc="T T T"
Si       2.05704490       1.30225835       4.47939974
Si       3.00328265       7.41379304       3.63350511
Si       3.00328282       4.80927482       3.63350423
Si       2.05704508      -1.30225987       4.47939886
Si       2.96397817       9.00599148       1.92107225
Si       2.09634917       2.89445564       6.19183368
Si       2.09634956      -2.89445832       6.19183172
Si       2.96397856       3.21707753       1.92107029
Si       3.48927990       4.90039534       6.19153894
Si       1.57104798      -1.21113769       1.92136421
Si       1.57104782       1.21113782       1.92136503
Si       3.48927974       7.32267085       6.19153976
Si       0.60536332       9.60755578       0.72885405
Si       4.45496393       3.49601945       7.38405228
Si       4.45496440      -3.49602261       7.38404992
Si       0.60536379       2.61551372       0.72885169
16
Lattice="5.072116018839351 -1.0085725345426609e-08 1.0353964969272533 -8.123201045547649e-07 12.137585737367646 4.097558728052366e-06 0.06211758703562852 -6.068795107145336 6.642972510080079" Properties=species:S:1:pos:R:3 unique_starting_index=69 config_type=initial n_minim_iter=16 pbc="T T T"
Si       2.05120099       1.26678220       4.23123801
Si       3.08303162       7.33557540       3.44713462
Si       3.08303179       4.80200964       3.44713377
Si       2.05120116      -1.26678357       4.23123715
Si       3.08127213       8.93743241       1.83032499
Si       2.05296027       2.86863812       5.84804872
Si       2.05296065      -2.86864058       5.84804678
Si       3.08127251       3.20015372       1.83032305
Si       3.49903795       4.87200504       5.84492451
Si       1.63519500      -1.19678660       1.83344646
Si       1.63519484       1.19678680       1.83344727
Si       3.49903779       7.26557844       5.84492532
Si       0.60728587       9.52753094       0.68589282
Si       4.52694644       3.45873621       6.99248129
Si       4.52694691      -3.45873911       6.99247896
Si       0.60728634       2.61005563       0.68589048
16
Lattice="5.217658213800017 -2.731512145751156e-08 1.1152855538572644 -8.142291408388067e-07 12.166110271192446 4.107188412833301e-06 0.16823216858091508 -6.083057394687318 6.725117154592102" Properties=species:S:1:pos:R:3 unique_starting_index=69 config_type=initial n_minim_iter=17 pbc="T T T"
Si       2.16950476       1.26296619       4.30953373
Si       3.21638461       7.34602166       3.53087260
Si       3.21638478       4.82008788       3.53087174
Si       2.16950493      -1.26296759       4.30953287
Si       3.18689889       8.95889242       1.89275751
Si       2.19899027       2.87583584       5.94764990
Si       2.19899065      -2.87583835       5.94764796
Si       3.18689927       3.20721822       1.89275557
Si       3.67307338       4.88393507       5.96011390
Si       1.71281631      -1.19911882       1.88029076
Si       1.71281615       1.19911900       1.88029157
Si       3.67307322       7.28217289       5.96011471
Si       0.64085354       9.54686897       0.70744872
Si       4.74503554       3.46381194       7.13295909
Si       4.74503600      -3.46381490       7.13295675
Si       0.64085400       2.61924213       0.70744638
16
Lattice="5.183330590884694 -2.0901588644539132e-08 1.0894824117479147 -8.063281843807792e-07 12.048054997093107 4.06733384642002e-06 0.1287316507521179 -6.024029727158872 6.627003740065527" Properties=species:S:1:pos:R:3 unique_starting_index=69 config_type=initial n_minim_iter=18 pbc="T T T"
Si       2.13262011       1.24776049       4.24237149
Si       3.17944114       7.27178831       3.47411825
Si       3.17944130       4.77626597       3.47411741
Si       2.13262028      -1.24776186       4.24237065
Si       3.15783884       8.87241315       1.85890186
Si       2.15422219       2.84838423       5.85758895
Si       2.15422257      -2.84838669       5.85758703
Si       3.15783922       3.17564222       1.85889994
Si       3.61600859       4.83603728       5.86547390
Si       1.69605298      -1.18798899       1.85101419
Si       1.69605282       1.18798918       1.85101499
Si       3.61600843       7.21201545       5.86547470
Si       0.63208067       9.45367741       0.69551912
Si       4.67998028       3.42964805       7.02097209
Si       4.67998074      -3.42965095       7.02096977
Si       0.63208113       2.59437841       0.69551680
16
Lattice="5.2026396524651775 -1.926078326054691e-08 1.0884500111085496 -8.053797754906047e-07 12.033883878378258 4.062549804634644e-06 0.11862602725221723 -6.016944163553201 6.61241649022967" Properties=species:S:1:pos:R:3 unique_starting_index=69 config_type=initial n_minim_iter=19 pbc="T T T"
Si       2.13418492       1.24331067       4.23324035
Si       3.18707976       7.26025294       3.46762973
Si       3.18707993       4.77363023       3.46762890
Si       2.13418509      -1.24331204       4.23323951
Si       3.16650072       8.86227899       1.85512185
Si       2.15476376       2.84533564       5.84574932
Si       2.15476414      -2.84533809       5.84574739
Si       3.16650110       3.17160526       1.85511993
Si       3.61803866       4.82994642       5.85235348
Si       1.70322635      -1.18699430       1.84851496
Si       1.70322619       1.18699448       1.84851576
Si       3.61803850       7.20393520       5.85235428
Si       0.63315432       9.44166841       0.69418351
Si       4.68811008       3.42472461       7.00668805
Si       4.68811053      -3.42472751       7.00668574
Si       0.63315478       2.59221629       0.69418119
16
Lattice="5.2918499968197095 -1.3100263215826815e-08 1.0878870937369352 -7.998759700611474e-07 11.95164643885744 4.034787089025109e-06 0.08068378088762938 -5.975825422891269 6.542981311104987" Properties=species:S:1:pos:R:3 unique_starting_index=69 config_type=initial n_minim_iter=20 pbc="T T T"
Si       2.14634681       1.21911366       4.19146478
Si       3.22618599       7.19493721       3.43940717
Si       3.22618616       4.75670854       3.43940635
Si       2.14634697      -1.21911501       4.19146396
Si       3.20683696       8.80352940       1.83920633
Si       2.16569562       2.82770478       5.79166671
Si       2.16569600      -2.82770720       5.79166480
Si       3.20683734       3.14811742       1.83920442
Si       3.63124992       4.79446023       5.79228740
Si       1.74128321      -1.18136178       1.83858293
Si       1.74128305       1.18136197       1.83858373
Si       3.63124976       7.15718398       5.79228820
Si       0.63920605       9.37235039       0.68856843
Si       4.73332646       3.39652534       6.94230500
Si       4.73332691      -3.39652820       6.94230270
Si       0.63920651       2.57929686       0.68856613
16
Lattice="5.334362330969486 -1.5182238474538873e-08 1.1024820405200269 -7.963564774794913e-07 11.899058319880949 4.017033775246906e-06 0.09350644918881376 -5.9495313653214685 6.551206227639229" Properties=species:S:1:pos:R:3 unique_starting_index=69 config_type=initial n_minim_iter=21 pbc="T T T"
Si       2.16984407       1.19576622       4.20109732
Si       3.25802374       7.14529570       3.45259447
Si       3.25802390       4.75376191       3.45259366
Si       2.16984423      -1.19576757       4.20109651
Si       3.22449132       8.76804839       1.84406499
Si       2.20337627       2.81851783       5.80962789
Si       2.20337665      -2.81852026       5.80962598
Si       3.22449169       3.13101030       1.84406309
Si       3.64571639       4.76719741       5.80166773
Si       1.78215174      -1.18233054       1.85202245
Si       1.78215158       1.18233072       1.85202325
Si       3.64571623       7.13185867       5.80166853
Si       0.64670340       9.32490540       0.69215638
Si       4.78116411       3.37537440       6.96153688
Si       4.78116456      -3.37537727       6.96153460
Si       0.64670386       2.57415373       0.69215410
16
Lattice="5.294110220929365 -6.866741882601493e-09 1.0698704718656684 -7.923853327784713e-07 11.839721561019404 3.997002187932603e-06 0.04229182720399127 -5.919862971912548 6.499648035015719" Properties=species:S:1:pos:R:3 unique_starting_index=69 config_type=initial n_minim_iter=22 pbc="T T T"
Si       2.12442552       1.18511560       4.15860285
Si       3.21197557       7.10497671       3.41091916
Si       3.21197573       4.73474416       3.41091836
Si       2.12442568      -1.18511694       4.15860205
Si       3.18747385       8.72464478       1.81331797
Si       2.14892702       2.80478260       5.75620513
Si       2.14892740      -2.80478501       5.75620324
Si       3.18747423       3.11507717       1.81331607
Si       3.57110156       4.74042322       5.73807056
Si       1.76529985      -1.17943636       1.83144984
Si       1.76529969       1.17943654       1.83145064
Si       3.57110140       7.09929613       5.73807136
Si       0.63565047       9.27710004       0.68288103
Si       4.70075033       3.35723744       6.88664244
Si       4.70075078      -3.35724027       6.88664017
Si       0.63565092       2.56262233       0.68287877
16
Lattice="5.3261780383760025 -1.0178131523939898e-08 1.086036534913447 -7.954661570884667e-07 11.885754361638698 4.012542594769727e-06 0.06268632605287033 -5.942879385363434 6.542617724765677" Properties=species:S:1:pos:R:3 unique_starting_index=69 config_type=initial n_minim_iter=23 pbc="T T T"
Si       2.14905820       1.18855526       4.18990141
Si       3.23980520       7.13143277       3.43875636
Si       3.23980536       4.75432090       3.43875555
Si       2.14905836      -1.18855661       4.18990061
Si       3.20951742       8.75847866       1.83026621
Si       2.17934576       2.81560007       5.79839266
Si       2.17934614      -2.81560251       5.79839076
Si       3.20951779       3.12727608       1.83026431
Si       3.60600023       4.75815837       5.78161923
Si       1.78286349      -1.18471761       1.84703693
Si       1.78286333       1.18471779       1.84703773
Si       3.60600007       7.12759376       5.78162003
Si       0.64246050       9.31246195       0.68915660
Si       4.74640261       3.36958293       6.93950264
Si       4.74640306      -3.36958579       6.93950037
Si       0.64246095       2.57329322       0.68915432
16
Lattice="5.325059282342159 -9.85931453694468e-09 1.0848702896879334 -7.949607334729264e-07 11.878201682982468 4.009992972116154e-06 0.060722602169752726 -5.9391030452065 6.539773709229325" Properties=species:S:1:pos:R:3 unique_starting_index=69 config_type=initial n_minim_iter=24 pbc="T T T"
Si       2.14755622       1.18673524       4.18790629
Si       3.23822470       7.12583641       3.43674121
Si       3.23822486       4.75236458       3.43674041
Si       2.14755638      -1.18673659       4.18790549
Si       3.20766072       8.75289826       1.82857480
Si       2.17811998       2.81379601       5.79607380
Si       2.17812036      -2.81379845       5.79607190
Si       3.20766110       3.12530380       1.82857290
Si       3.60162299       4.75441238       5.77818487
Si       1.78415825      -1.18468726       1.84646104
Si       1.78415809       1.18468744       1.84646184
Si       3.60162283       7.12378708       5.77818567
Si       0.64234547       9.30612818       0.68885216
Si       4.74343516       3.36702550       6.93579681
Si       4.74343561      -3.36702836       6.93579454
Si       0.64234592       2.57207431       0.68884989
16
Lattice="5.326370747941966 -9.537004175111255e-09 1.084175453782242 -7.945718802921681e-07 11.872390571873558 4.0080313219338166e-06 0.058737317572699614 -5.936197489674713 6.539447773793551" Properties=species:S:1:pos:R:3 unique_starting_index=69 config_type=initial n_minim_iter=25 pbc="T T T"
Si       2.14707786       1.18444968       4.18763896
Si       3.23802924       7.12064530       3.43598777
Si       3.23802940       4.75174458       3.43598697
Si       2.14707802      -1.18445104       4.18763816
Si       3.20672705       8.74854525       1.82731011
Si       2.17837983       2.81234856       5.79631772
Si       2.17838021      -2.81235099       5.79631582
Si       3.20672743       3.12384570       1.82730821
Si       3.59747852       4.75089701       5.77673341
Si       1.78762890      -1.18529707       1.84689172
Si       1.78762874       1.18529725       1.84689252
Si       3.59747836       7.12149133       5.77673421
Si       0.64268560       9.30087185       0.68888999
Si       4.74242121       3.36467473       6.93473821
Si       4.74242166      -3.36467759       6.93473594
Si       0.64268605       2.57151953       0.68888772
16
Lattice="5.344745992963868 -4.355380145607991e-09 1.0724693840277715 -7.911547701822905e-07 11.821331331817817 3.990794287431274e-06 0.02682382753830225 -5.910667871624509 6.538979879804937" Properties=species:S:1:pos:R:3 unique_starting_index=69 config_type=initial n_minim_iter=26 pbc="T T T"
Si       2.13809890       1.15915288       4.18555475
Si       3.23346997       7.06981888       3.42589798
Si       3.23347013       4.75151176       3.42589719
Si       2.13809905      -1.15915424       4.18555397
Si       3.19514101       8.70930010       1.81036517
Si       2.17642764       2.79863302       5.80108867
Si       2.17642802      -2.79863547       5.80108678
Si       3.19514138       3.11203161       1.81036328
Si       3.54138816       4.71563698       5.75976634
Si       1.83018103      -1.19502748       1.85168480
Si       1.83018087       1.19502766       1.85168561
Si       3.54138800       7.10569212       5.75976715
Si       0.64635752       9.25223060       0.68903628
Si       4.72521106       3.34156310       6.92241792
Si       4.72521151      -3.34156596       6.92241567
Si       0.64635796       2.56910154       0.68903402
16
Lattice="5.298634946588401 1.4450984217835916e-08 1.0076206828326426 -8.002317876290579e-07 11.956957550765525 4.0365809174214935e-06 -0.08900348043362949 -5.978480969971628 6.483059460297548" Properties=species:S:1:pos:R:3 unique_starting_index=69 config_type=initial n_minim_iter=27 pbc="T T T"
Si       2.05914775       1.17051252       4.13566005
Si       3.15048278       7.14899163       3.35502362
Si       3.15048294       4.80796527       3.35502283
Si       2.05914791      -1.17051384       4.13565926
Si       3.13541353       8.79652937       1.75240135
Si       2.07421678       2.81804918       5.73828344
Si       2.07421715      -2.81805158       5.73828153
Si       3.13541391       3.16042861       1.75239945
Si       3.38331182       4.75726362       5.67087336
Si       1.82631902      -1.22121396       1.81980870
Si       1.82631886       1.22121417       1.81980952
Si       3.38331166       7.19969175       5.67087418
Si       0.63610589       9.35220098       0.67611889
Si       4.57352434       3.37372040       6.81456628
Si       4.57352479      -3.37372319       6.81456400
Si       0.63610634       2.60475740       0.67611661
16
Lattice="5.34833861171284 4.988615212852874e-09 1.0455029228783033 -7.994942070797744e-07 11.945934709148577 4.0328600130046626e-06 -0.030725897799908662 -5.972969564378174 6.539683004293637" Properties=species:S:1:pos:R:3 unique_starting_index=69 config_type=initial n_minim_iter=28 pbc="T T T"
Si       2.11322062       1.16898986       4.18419637
Si       3.20439115       7.14195755       3.40099307
Si       3.20439130       4.80397648       3.40099228
Si       2.11322078      -1.16899121       4.18419558
Si       3.17489995       8.78741931       1.78429859
Si       2.14271159       2.81445053       5.80089196
Si       2.14271197      -2.81445296       5.80089006
Si       3.17490033       3.15851582       1.78429669
Si       3.45872661       4.75262188       5.73950790
Si       1.85888548      -1.22034427       1.84567992
Si       1.85888531       1.22034446       1.84568075
Si       3.45872644       7.19331061       5.73950873
Si       0.65243843       9.34318580       0.68803293
Si       4.66517304       3.37021662       6.89715799
Si       4.66517349      -3.37021945       6.89715572
Si       0.65243889       2.60274973       0.68803066
16
Lattice="5.329957533274891 6.905435757405706e-09 1.0361807702571528 -7.961848137500311e-07 11.89648338490113 4.016166045398509e-06 -0.04253205310872597 -5.948243893159012 6.510401975037407" Properties=species:S:1:pos:R:3 unique_starting_index=69 config_type=initial n_minim_iter=29 pbc="T T T"
Si       2.09938967       1.16391570       4.16399840
Si       3.18803487       7.11215773       3.38258785
Si       3.18803503       4.78432499       3.38258706
Si       2.09938982      -1.16391704       4.16399761
Si       3.16148798       8.75045366       1.77308992
Si       2.12593634       2.80221055       5.77349743
Si       2.12593671      -2.80221297       5.77349554
Si       3.16148836       3.14603014       1.77308803
Si       3.43632618       4.73265321       5.71080666
Si       1.85109867      -1.21558728       1.83577798
Si       1.85109851       1.21558748       1.83577880
Si       3.43632602       7.16382797       5.71080748
Si       0.64943249       9.30447544       0.68427690
Si       4.63799175       3.35623193       6.86231083
Si       4.63799220      -3.35623475       6.86230856
Si       0.64943294       2.59200876       0.68427463
