18
Lattice="8.589036730732163 -4.3255723973926616e-16 -3.194288738013463e-29 3.353114570264995e-16 6.689521066112372 -5.565806952439623e-15 2.837267121627525e-29 -1.5934232008526523e-14 8.379398358813127" Properties=species:S:1:pos:R:3 unique_starting_index=81 config_type=initial n_minim_iter=18 energy=-2975.201490231824 free_energy=-2975.201490231824 pbc="T T T"
Si       6.24578524       2.43436212       3.52963295
Si       6.24578524       4.25515894       4.84976541
Si       6.24578524       2.43436212       4.84976541
Si       6.24578524       4.25515894       3.52963295
Si       7.16490685       0.86781016       3.46437076
Si       7.16490685       5.82171090       4.91502760
Si       7.16490685       0.86781016       4.91502760
Si       7.16490685       5.82171090       3.46437076
Si       5.51023917       5.93340578       3.41607292
Si       5.51023917       0.75611529       4.96332543
Si       5.51023917       5.93340578       4.96332543
Si       5.51023917       0.75611529       3.41607292
Si       3.34766360       5.89337114       7.45326811
Si       3.34766360       0.79614992       0.92613025
Si       3.34766360       5.89337114       0.92613025
Si       3.34766360       0.79614992       7.45326811
Si       4.75209352       6.68952107       6.49865339
Si       4.75209352       0.00000000       1.88074497
